<?xml version="1.0" encoding="UTF-8"?>
<!-- generated on 2020-04-01 15:31:02.404000 by install_osm_scenario_templates.py v1_5_0+1066-d6f17e7308
  options: <doubleminus>clean -v -p data
-->
<tazs xmlns:xsi="http://www.w3.org/2001/XMLSchema-instance" xsi:noNamespaceSchemaLocation="http://sumo.dlr.de/xsd/taz_file.xsd">
    <taz id="110100411" edges="-405100404#2 171484594 188240631"/>
    <taz id="110100412" edges="78298215#0"/>
    <taz id="110100531" edges="-11845130#1 -159081775 -159081777#1 -159081777#3 -159081779#1 -176043805 -4474915#1 -4579366 -4597334#2 -55495482#0 -55495482#2 -9657820#0 11845130#0 159081777#0 159081777#3 176043805 28108856#0 36259509#0 36259516#0 37289167#0 4474915#0 4579366 4597334#0 4611886 475533028 475533029 55495482#0 55495482#1 9657820#0 9657820#1"/>
    <taz id="110109811" edges="-153698415#4 -188240629#1 -195104960#5 -437325050 -4592739#1 -76212441#3 153698415#0 437325050 4403526#0 4412886#0 76212441#0"/>
    <taz id="110109812" edges="-105352753 -111251382#3 -131505631#1 -153698387#2 -153698390#1 -164039095#0 -164039095#1 -169660686#0 -176043794 -176043807#0 -176043807#11 -327518240#1 -35556702#1 -427637455 -437325051#1 -4570580#2 -541295974 -541295976#0 -541295976#2 -60333308#1 -750204886 111251382#0 131505631#0 153698387#0 153698387#3 153698390#1 164039095#0 164039095#1 165409970 169659401 169660686#0 169660686#1 176043794 176043806#0 176043807#1 30720544#1 31112516#0 31112516#1 327518240#0 35556702#0 380240681 388702049#0 388702049#2 388702049#3 389705415#1 42103020#0 42103021 427637455 437325051#0 4403559#0 4570580#0 541295974 541295976#0 541295976#2 541295978#0 60333312#0 6228081 750204886 93584120#2 93584120#3 93584120#4"/>
    <taz id="110109821" edges="-153698391 -172080041 -195091665 -286774655#2 -29312187 -315214529#12 -315214529#13 -318015897#1 -327481193 -33177962#3 -427970090 -43053691#0 -43053691#1 -437325046#2 -4383283#0 -56680556#0 -58519466 -60333317#0 144529199#2 144529199#5 144529199#7 153698391 154043350 172080041 176043803#1 196520271 222389420#0 254807835#0 27779097#0 291670890#0 291670890#3 291696980#0 291696982#0 315214529#13 318015897#0 327481193 33177962#0 43053691#0 43053691#1 437325046#0 4383283#0 4383283#1 56680556#0 56680556#1 576351127 60333308#0 60333314 60333317#0 60333317#1"/>
    <taz id="110109822" edges="-169719829#5 -176043804#1 -32805741#2 -7917219#3 154321049#0 167140669#0 167140669#1 167140669#2 167140669#3 167140670#3 167140670#4 169717723#0 169719829#0 169719829#6 169953964#0 27779023#0 30122986#0 30719903#0 30719903#1 32805741#0 35269774#0 374734383#0 374734389#0 388702047#0 4597207#0 465376253#0 6227654#0 6227654#4 6227796#0 6228154#0 6228154#1 7917219#0 93584120#0"/>
    <taz id="110109831" edges="-117611349#1 -176043799#2 -241886108#2 -247187765 -291670881#6 -291696979#3 -291696983#4 -374734384#1 -374734384#4 -39350082#0 -4383280#6 -4383283#1 -4592757#0 -4592757#2 -4597199 -4597202#0 -56680556#2 -671403217 -778348345#0 -778348345#1 100113767#1 104590139#1 117611349#0 118423895 144528130#2 154315269#1 154315269#4 169953964#2 169953964#3 169953965#0 247187765 282760693#0 282760693#1 282760693#3 282760693#4 291670881#0 291670885#0 291670885#1 291670890#7 291670890#9 291670891#2 291670891#3 291670891#4 291670892#1 291670892#2 291686434#2 291696979#0 291696983#1 29312187 316975485#0 316975485#1 317401282 374734384#0 374734384#2 39350082#0 39350082#1 427970090 4383280#0 443401746#1 4592757#0 4592757#1 4597199 4597202#0 4597202#1 6227656 778348345#1"/>
    <taz id="110109841" edges="-274754088#4 -291686436#2 274754088#0 286774655#0 291686436#0"/>
    <taz id="110109911" edges="-172078325#2 -172078325#3 -172078684#1 -369726993 -4597202#2 -4597205 -4597206#1 -4597254#1 -53257010#0 -53257010#1 144528130#0 153692984#0 154315269#0 172078325#0 172078325#3 172078325#4 291670891#6 369726993 4597202#3 4597206#2 53257010#0 53257010#1 551623421"/>
    <taz id="110109912" edges="-131650081#4 -131650081#5 -312645512#2 -46138135 131650081#5 297373653#0 4597254#0 46138135 83146233#0"/>
    <taz id="110109913" edges="-154046793 -16571799#1 -16571799#2 -16571799#3 -24684997#0 16571799#0 16571799#2 16571799#3 168253001#1 24684997#0 24684997#1 84575573"/>
    <taz id="110109933" edges="168253001#0 26757071#0"/>
    <taz id="110110011" edges="-165415464#2 -168940071#1 -168940071#4 -24243101 -24243107#1 -24243107#2 -268002745 -312651888#2 -36689633#3 -437325054#2 -4396823#0 -4396823#1 -4610374 -4610375 -465398528 -51167934#4 -560370523 -6227658#1 -6227658#2 101699672 154321049#2 165415452#0 165415454#0 165415464#0 167140670#0 167140670#1 168249863 168940071#0 168940071#2 204032443#0 24243107#0 24243107#2 268002745 30719903#2 312651888#2 318915601#0 318915602#2 437325047#5 437325048#0 437325054#0 4396823#1 4610374 4610375 465398529#0 51167934#0 6227658#0 6227658#2"/>
    <taz id="110110012" edges="-225400578#1 -36689633#0 -437325047#3 -454285423#4 -493008123#1 -493008124#1 -73310499#1 -73310499#2 101699676#1 101699676#2 101699676#3 101699676#4 225400578#0 236523981#0 23852053#0 30721656#0 30721656#1 30721656#2 30721656#3 30721662#0 30721662#1 30721662#2 30721662#3 36689633#0 36689633#1 4296467#0 437325047#0 454285423#0 4610351#0 4610362#0 4610362#4 4610362#5 4610362#6 4610362#7 4610362#8 493008123#0 493008124#0 73310499#0 73310499#2"/>
    <taz id="110110013" edges="-168942727#1 -24241790#3 -267542609 -267542610#1 -36892597#1 -36892597#2 -371927739#1 -371927739#3 -4296467#1 -55741054 -62363401 -743631784 -755340907 -84960595 -84960597#3 101694131#0 101694131#1 101699679#0 101699679#1 101699679#2 101699679#3 11103418 143931934 143931935 153522299#0 153522299#2 153522299#3 153522302#0 153522303#0 153537606#1 153537614#2 153537614#3 183415643 24241762#0 24241790#0 267542609 267542610#0 30721660#0 30721660#2 30721660#4 316746323#0 36892597#0 36892597#2 371927739#0 371927739#3 4296468#0 4610354#0 4610354#3 4610355#0 46140373 46140376#1 46140378 46140379#0 46140379#1 46140380 46140381 46140383 46140384 46140385 46140393 48664717#0 55741054 755340907 83517332#1 84960595 84960597#0"/>
    <taz id="110110021" edges="-153692976#0 -153692976#2 -153692984#4 -169717723#3 -172078325#4 -237209664 -268002750 -297373653#3 -30196049 -312651885 -312651887#1 -312651887#4 -312651888#0 -312651888#1 -441788215 -4597206#5 -4610356 -713576590 -73310497#2 -73310501#0 -73310501#3 -73310502#2 -80715076#0 -80715076#3 131650081#0 153692976#0 153692976#1 153692978#0 237209664 268002750 30196049 312651885 312651887#0 312651887#2 312651888#1 32858408#0 36689634#0 441788215 4610352#0 4610356 713576589#0 713576590 73310497#0 73310501#0 73310501#1 73310502#0 80715076#0 80715076#1"/>
    <taz id="110110022" edges="-320894149 -32858408#0 -32858408#1 -36689634#2 -46138134#1 -717741321#0 -717741321#3 -717741321#4 -740848375 131650082 153427725#6 153427725#7 153537614#1 168253001#5 168253001#6 169717722#0 238682696 24242440#0 26757071#4 26757071#5 312645512#0 312654701#0 320894149 32858408#1 4610353 4610364#0 46138134#1 46138138#0 717741321#0 717741321#1 717741321#4 740848375 83146233#2 83146233#3"/>
    <taz id="110110023" edges="-180331459 -23852056#2 -24241762#2 -24241762#3 -24241762#6 -247402308 -268002743 -4296469#1 -4296469#2 -4296469#4 -44122832#0 -44122832#1 -4606231#2 -4790879 -717177007#0 -717177007#1 -84575573 102983787#0 153424828#1 153424828#2 23852056#0 24241762#3 24241762#5 247402308 268002743 312651884#0 312651884#2 312651884#3 312651884#7 312654701#3 312654705#0 4296469#0 4296469#2 4296469#3 44122832#0 44122832#1 44427219#1 44427220#0 44427220#2 4613286#0 4613286#3 4613286#5 4790879 717177006#0 717177007#0 717177007#1 84575572#0 84575572#1"/>
    <taz id="110110111" edges="-156364570#0 -156364570#4 -23813206#2 -25294729#0 -25294729#1 -25302636#3 -28016312#3 -370359204#2 -387892378 -478396988 144014234#3 144014234#4 150394034#4 150394034#5 150394035#0 150394035#3 150394035#4 150478185#0 156364556#0 156364570#1 195400997#0 195400997#1 195401006 202156994#0 202157002#0 22962554#1 23809670#0 23813206#0 23960874#0 24913519#0 24913523#0 24913523#2 24913524#3 24915070#0 24915070#2 25294728 25294729#0 25294729#1 25302636#0 275177453 28341062 30123145#0 30721656#4 370359204#0 415280722 421641064 421641065#0 4612981#0 4773465#0 478396988 490365295#0 72157174#0 77348147"/>
    <taz id="110110112" edges="-534588621 -562707499 -72678523#0 -751595930 128396190#0 150394034#3 150394036#1 19801533 22962554#2 23851930 24992428 289830064 289966097 289966281 289966845 309479676 312357351 33301683 344594961 344594962 4611726 4612963 4612965 4612969#0 534588621 60333311#0 60333313 606078065 606078071#0 61583424#0 72678523#0 72678523#2 751595929#0 81112790#0 82649618#0 82654055#0 93628049#0"/>
    <taz id="110110113" edges="-168943640#4 -24992424#2 -24992424#5 -310176513#4 -310176513#7 -310176513#9 -43159545#1 -4612966#1 -4612968#3 -4612970#1 -495066404 -82652816 -82658674#1 -82658674#5 156364559#5 156364559#7 156364566#0 168943640#0 23812656#0 24992424#0 24992424#3 25086767#0 310176513#5 310176513#9 344594965#0 344594966 43159545#0 43164692 4612961#0 4612961#2 4612964#0 4612964#1 4612966#0 4612968#0 4612970#0 4612973#0 4612974#0 495066404 54698846#0 60333309#0 60333309#1 82652816 82658674#2"/>
    <taz id="110110121" edges="-112128825#0 -112128825#1 -188914559 -19002363#0 -19002363#10 -19002363#2 -23294704 -24241797#3 -24990040 -24993933#4 -268002748#1 -369223457#0 -369223457#1 -369223458#0 -369223458#1 -4613293#0 -4613298#1 -4613299#1 -4613299#3 -4613299#4 -4613300#2 -4613300#8 -4613300#9 -713577963 109819106#0 112128418#0 112128418#3 112128419#0 112128422#0 112128422#2 112128825#0 112128825#1 148449390#1 148452597#0 148452597#1 148452597#2 148452597#3 148811538#0 148811539#0 148811539#2 148811539#3 148811540#0 148811540#1 150201973#1 150201973#3 150201973#4 150201973#5 150201975 150204300#0 153424809#2 153424809#4 153424809#5 153424809#6 153424809#8 153424817#1 153424828#0 153427725#0 153689810#0 158785194#2 173197451#0 188914559 19002357#0 19002363#0 19002363#1 19002363#3 19002403#0 195401017#3 195401017#5 23294704 24241797#0 24914109 24914141#0 24914141#8 24990040 24993933#0 268002748#0 309300320#0 309300321#0 312654706#0 312654706#4 319339413#0 319339413#3 331114772#0 331114772#1 331114772#2 331114772#4 331114772#8 331114772#9 369223457#0 369223457#1 369223458#0 369223458#1 369223459#0 369223460#0 369223461#0 414976603 457031289 4613110#0 4613110#2 4613292#0 4613293#0 4613293#1 4613294#0 4613294#2 4613295#0 4613295#1 4613295#2 4613296#0 4613297 4613298#0 4613299#0 4613299#2 4613299#4 4613300#0 4613300#3 4613300#9 4613308#0 4615003#0 4790804#0 4790813#0 4790822 4791000#0 4791000#3 4791000#4 713577963 756306892 86208412#1 86208412#3 86208412#4 86208412#5 86220069#0"/>
    <taz id="110110122" edges="-109819340#3 -110464119 -173197451#1 -173197451#4 -173197451#6 -19801644#0 -19801644#3 -22036538#3 -276701303#2 -4613306#0 -4613306#1 -566764344 -566764345 -694626562 -780281639#0 -780281639#1 109819340#0 110464119 150178427#2 150178427#3 150178429 150178430#1 150178430#2 150178431 150178892#0 150178892#2 150178892#3 150178892#4 150178892#5 150178892#6 150178893#10 150178893#11 150178893#12 150178893#13 150178893#8 150178893#9 150190354 150201969#0 150201969#1 150201969#2 150201974 150478184#0 150478184#1 150478184#4 153454794#2 153454794#3 153454794#4 153454794#5 154305216#0 154305216#2 154305216#3 154305216#4 154305216#5 154305216#6 154449601#2 154449601#3 154449601#4 154449601#5 154449601#6 173197451#2 173197451#6 177372522 187103791 187103792#0 187111590#0 189133035#0 189133036#0 19801644#0 19801644#1 22962555#0 22962555#2 232070355#0 25957881#0 25957881#1 26506567#0 276701303#0 28679067#0 28679067#1 288749951#0 288749951#4 295445243 296122995#0 298912688#0 298912688#4 300401898 307098733#0 307098733#1 307098734#3 311690284 317013528#0 4613112#0 4613306#0 4613306#1 46517263#0 46517263#1 46517263#2 46517263#3 46517263#4 46517264#2 4790801 4790833#0 4790839#0 4790843#0 4790843#4 4790869#0 4790869#4 492609984 492609985#0 566764344 566764345 694626562 780281639#0 780281639#1 94351499"/>
    <taz id="110110123" edges="-148458500#1 -312176585#2 -4790825#2 100405009#0 148449390#0 148452597#4 148457212#0 148457212#1 148457213#0 148457213#1 148458493 148458495 148458497#0 148458500#0 150394034#0 150476514 163368988#2 188044903#0 188046016#0 195407521 19801548#0 19801618#0 24540242#0 289967595#0 29177662#0 301167584#0 301241483#2 301733774#0 301733774#1 301733776 30826268#0 309155392 312176585#0 317013528#4 317013528#5 47016365#0 4790825#1 82659290#0"/>
    <taz id="110110211" edges="-108031933#2 -111833186#2 -132600840#1 -176273730#2 -210668637 -24242892#4 -24242892#5 -24242892#8 -25945966 -38912785 -437325055#2 -437325056#2 -4402037#0 -4402037#2 -4588211 108031933#0 131577613#0 132600840#0 153698402#0 153698402#1 153698413 154041909#0 154041912#0 210668637 236092221#0 236092221#2 24240245#0 24240246#0 24242892#5 24242892#6 24913304#0 24913304#2 38912785 424323348 437325055#0 437325056#0 4402037#0 4402037#1 4588211 532727925#0 68711084#0"/>
    <taz id="110110212" edges="-111833185#1 -11483007#2 -153698380#2 -155186522 -158023913#6 -169999355#2 -194069450#3 -195105328#0 -195105328#1 -292429062#3 -292429063#0 -292429063#1 -330840125#1 -35578576#2 -4412868 -461526153 -66071373#3 111833185#0 111833186#0 11483007#0 144014237#0 144014237#1 153698380#0 153698394#1 153698394#2 155186522 158023913#0 167272512#6 169999355#0 188386313#0 195105328#1 195411594#3 22820560#0 22820560#1 22972195#2 22972454 24242892#0 24243052#0 24243052#4 24243052#5 24913267#0 292429062#0 292429063#0 292429063#1 330840125#0 340498982#0 340498988#0 342968607#0 35578576#1 4412868 461526152#0 461526153 465376243#0 465376243#1 465376256#0 688761153 83517336#0 83517336#3 93584121#0 93584121#1"/>
    <taz id="110110213" edges="-168937986#4 -202156991#2 -23121445#5 -339201177#5 -4610524 15971197#0 168937986#0 169195795#0 202156991#0 23121445#0 251884680 340498982#8 354528932 4610480 4610600 54048862#0 54048862#4 54048863 541763974"/>
    <taz id="110110214" edges="-137630045 -195397561#4 -222328410 -339201185 -4610472#1 -4610472#2 -465376254 -6228081 165409971#2 190447768#1 195411601#1 222328410 34848160#0 4402228 4610472#0 4610472#2 492340367"/>
    <taz id="110110215" edges="-122820534#1 -15977422#0 -195411605#0 -28251222#1 -4610480 114667396#0 122820534#0 144014228#0 144014228#1 144014230#0 144014230#1 144014230#2 144014233#0 144014233#1 144014242#1 15977422#0 167272512#0 167272512#2 167272512#4 169195795#2 169195795#7 169195795#8 207363168 207364191#1 207364192#2 207364192#3 207364192#4 22972219#0 24243092#0 340498976#1 340498976#10 340498976#3 340498976#7 340498982#3 35578559 4610476#1 4610479#0 83517334#1"/>
    <taz id="110110311" edges="-181472197#2 -197160273#3 -25042806#8 -335462921#5 -356359316#5 -4396109 -453379904 -4588215#5 -4597324#4 -505526660#2 -710761407#4 -9657820#2 110032714#0 11845184#0 11845184#3 11845212#0 159081772#0 159081772#2 159081773 159081774#0 159081775 159081779#0 181472197#0 24214089#0 24214089#2 24214089#4 328064918#0 335462921#0 34832961#0 356359316#0 36259518#0 36259520#0 404598738#0 43348945#0 4396109 4396503#0 453379904 4588215#0 48859718#2 505526660#0 67718316#0 707107510#0 710761406#0 710761408#0"/>
    <taz id="110110312" edges="-320462163#3 -320462164#1 -335462874#2 -335462916 -4401967#2 -4597320#5 -4597322#7 -4597324#0 -4597324#3 -4597325#2 -533509622#1 -533509622#6 -710761407#1 -85255869#2 -85255870#2 131577612#0 154041918#0 154041920 168928174 23755739#0 25776568#0 320420912#0 320420913#0 320420916#0 320462164#2 335462916 4401967#0 4597320#0 4597322#0 4597324#0 4597324#1 4597324#4 4597325#0 4597326 48859715#0 48859718#0 533509622#2 555858098#0 710761407#0 710761407#2 85255869#0 85255870#0"/>
    <taz id="110110313" edges="-109902441#0 -109902441#1 -168935757#2 -196850606#0 -196850606#4 -196850606#5 -23755739#4 -292429056#4 -303084352#1 -326116286#2 -42102542#2 -4588217#5 -4588219#1 -4588222#1 -47755711#2 109902441#0 109902441#1 168935756#0 168935757#0 171423001#0 191556835#0 194069450#0 196850606#0 196850606#1 196850606#5 196850606#6 196850607#0 196850608#0 196850609#0 24242882#0 292429056#0 303084352#0 35557143#0 42102542#0 4402014#0 4588217#0 4588219#0 4588219#2 4588220#0 4588222#0 4588222#2 47707170#4 47707171#0 47707171#5 47755711#0 681299267#0 681299268 753316505#0 753316506 82488124#0 82488125#0"/>
    <taz id="110110314" edges="-110785555#2 -16374393#2 -168935757#3 -196850606#8 -24242835 -327462543#2 -375459783 -4588224#2 -4611773 -65040958#2 -665241888#1 -67099797#0 -67099797#1 -67099797#2 -67627347 -67627353 -81113584#2 -98399537#0 110785555#0 168935757#3 199847241#0 199847244#0 199847247#0 199847252#0 24242835 24242838#0 327462543#0 43348945#3 4588224#0 4588225#0 458953718 4611773 65040958#0 66071387#0 665241888#0 67099789#0 67099797#0 67099797#1 67099797#2 67627350 707100745#0 81113584#0 82488125#1"/>
    <taz id="110110321" edges="-22972469#3 -23755718#3 -23755720#5 -23755731#0 -23755731#1 -24242838#0 -24242838#1 -327756248 -327756257#0 -327756257#1 -65040946#2 -66071387#0 -66071387#1 -66071387#2 23755718#0 23755720#0 23755731#0 23755731#1 24242838#1 24242838#2 327756248 327756257#0 327756257#1 32938436 508410318 508410319#0 66071387#1 66071387#2 66071387#3"/>
    <taz id="110110322" edges="-172421119#1 -179780067 -182623931 -335462871#1 -339201251#0 -375459781#2 -42747980#2 -4612403#3 -4612403#4 -4612410#6 -4612410#8 -4612412 -4612429#1 -508410319#1 -542983663 -563341815#1 -66071387#4 -71143837 108488061#0 108488061#1 108488061#2 172421119#0 172421119#2 179780067 182623931 233833576#0 24214231#0 24214231#1 339201250#0 339201251#0 339201251#1 415388550#0 42747980#0 42747981#3 4612403#4 4612403#5 4612410#0 4612410#7 4612412 4612429#0 542983663 563341815#0 66071390#0 66071390#1 66071390#2 71143837"/>
    <taz id="110110323" edges="-22972470#1 -22972470#5 -22972473#2 -22972473#3 -22972473#6 -23755961#1 -24997595 -35557143#4 -35557161#1 -35557161#3 -35557161#4 -35557161#6 -375311155#2 -375311158#3 -375459782#1 -389101365#4 -43376693#2 -4588219#2 -4588222#2 -4611706#1 -4611710#2 -67099789#3 110786129#0 16374191#0 22972469#0 22972470#0 22972470#2 22972473#0 22972473#3 22972473#4 23755961#0 23755961#2 24997595 35557161#0 35557161#2 35557161#4 35557161#5 375311154#0 375311155#0 375311156#0 375311157#0 375311158#0 375459782#0 375459783 389101365#0 389101373#0 389101374 4611708#0 47707170#0 66071366#0"/>
    <taz id="110110324" edges="-147066248#8 -15973619#12 -15973619#15 -15973619#8 -15973619#9 -23017852#0 -23017852#3 -23017853 -23755950#4 -23755961#2 -24509317#2 -375311153#1 -43346200#4 -43376477#1 -4611696#3 -4611708#1 -4611708#2 -4611708#3 -4611711#1 -4611712 -4611713#0 -4611713#1 -4611714#1 -4611714#11 -4611714#3 -4611714#9 -4611718#0 -4611718#1 -66071366#1 -66071366#3 -66071370 120359703 147066248#0 15973619#10 15973619#14 15973619#9 168514764 168514765#0 168515533#0 168515533#5 23017852#1 23017853 23755950#0 24509317#0 24509318 25945760#0 375311153#0 375311154#4 375312063#0 42747981#0 42747981#1 43346200#2 43376693#0 4611696#1 4611696#4 4611708#2 4611708#3 4611711#0 4611712 4611713#0 4611713#1 4611714#0 4611714#10 4611714#2 4611714#4 4611718#0 4611718#1 4611722#0 4611722#1 4612403#0 4773029#0 4773464#0 4773464#1 541763977#4 54781811#0 66071366#2 66514478 734578686"/>
    <taz id="110110325" edges="-24242882#0 -24242882#3 -243854725#3 -43231842#3 -474362271 -4773029#2 24242882#1 243854725#0 243854725#4 28251222#0 305153173 43230886 43231842#0 4611693#2 4611706#0 66071370 68647306#0"/>
    <taz id="110110331" edges="-173296880 -328426193#2 -43156537 -43156728#4 -4610608 -4610610#0 -4610610#1 -4610610#2 -4610610#3 -4610612 -505475202#1 -52328295#2 -755551646#1 120675240#0 173296880 202817674#0 23851917#0 304627753#0 328426208#0 43156537 4610607 4610608 4610610#0 4610610#1 4610610#2 4610610#3 4610612 4773463#1 52328295#0 625843712 753730627#0 755551646#2 755551647"/>
    <taz id="110110411" edges="-107747046#7 -147604951#1 -176031304#6 -24243245#1 -24243245#2 -25360631#2 -25360639#5 -328426220#2 -35557324#1 107747046#0 176031304#0 24243245#0 24243245#2 25360631#0 25360639#0 328426220#0 4612873 66514427#0 66514452#0"/>
    <taz id="110110412" edges="-176031303#2 -195430952#1 -195430955#1 -238933341#1 -25360632#2 -328426227#1 -328426227#3 -328426230#2 -448715094 -4612875#3 -4616595 -4887452 176031303#0 176031312 195418555 195430952#0 25360632#0 256968789#0 29548010 328426227#0 328426227#2 328426230#0 35557588#0 4616595 4878045#0 4887452"/>
    <taz id="110110421" edges="-30705211#3 -30705211#6 30705211#0 30705211#4 328426193#0 4840859#0"/>
    <taz id="110110422" edges="-172421119#2 -195430953 -195430954 -206718346#4 -206718346#6 -24214283 -24214284 -458953719#1 -4612403#5 -4612414#1 -625647965 172082587 195430953 195430954 206718346#0 206718346#5 216524084#0 22954357#0 24214283 24214284 25258502 26687610 30705210 328426236#0 328426251#0 328426253 328426256#0 328426258#0 4612414#0 4612422#0 497247980"/>
    <taz id="110110423" edges="-195418554#3 -231882067#1 -23859715#2 -24803471#0 -24803471#2 -24803495#2 -328426213#2 -328426224 -455097481 -4612416#3 -4612416#6 -4612871#8 -497247980 -65426521#1 -710342473#3 -7913573#10 -83510030 170311604#0 170311604#4 172082586 195418554#0 231882067#0 23859715#0 24803471#0 24803471#1 24803495#0 328426213#0 328426224 346583313#0 35557324#0 455097481 4612416#0 4612416#4 4612423#0 4612431#0 4612871#0 4614664 65426521#0 7913573#0"/>
    <taz id="110110424" edges="-176031295 -176031315#2 -195430959#1 -195430960#1 -22954356#7 -23443935#2 -25258502 -30705210 -4566442 -4612422#1 -4612427#4 -4612431#3 -62745347#2 176031295 176031315#0 18997847#0 18997847#2 195430957#0 195430959#0 22954356#0 23443935#0 25086766 25086769#0 4566442 4612427#0 511748316 62745347#0 83510030"/>
    <taz id="110110511" edges="-194962398#3 -29311581#2 -310177222#0 -310177222#4 -4612976 -628330888 -82652406#1 156364559#0 156364559#2 156364562#0 168943639#0 168943642#0 188047750 19001381#0 194962398#0 246044841#0 246044843#0 246044844#0 246044848 29311581#0 310177222#0 310177222#1 312533961#0 312533962#0 312534044#2 313195075 4612976 66311464#0 749876418#4 82639450"/>
    <taz id="110110512" edges="-168943639#3 -168943642#7 -23386522#7 -4615546#0 -4615546#2 -740538839#0 -740538839#1 -740538839#2 103360642#0 165450001#0 168943639#4 23386522#0 23386522#8 280175580 280667873 280667874 288585010 29290632#0 31912630#0 4615546#1 4615547#0 740538839#1 740538839#2 740538839#3"/>
    <taz id="110110513" edges="-29054704#4 -448076850 -4615496#4 -4615497#4 -4615497#6 -4615497#7 -48303485#3 153454794#0 154305219 29054704#0 296598505 296599839#0 299397170 299605821 4615496#0 4615497#5 4615497#7 4615536#0"/>
    <taz id="110110514" edges="-4615494#6 298473729 329612224 4615406#0"/>
    <taz id="110110515" edges="-23386525#0 -23386525#2 -306746900#2 -31748765#5 -31912630#2 -31912630#4 -31912630#6 -4083446#2 -4615599#6 -4615599#7 -738177360#1 23386525#0 23386525#1 287638448#0 287764737#0 306746900#0 31912630#4 31912630#5 31912630#7 370617120#0 4083446#0 43087121#0 448076850 4615599#7 4615603#0 708296765#0 738177360#0 738290009#0 82652409#0"/>
    <taz id="110201211" edges="-4611869#2 4611869#0"/>
    <taz id="110201221" edges="-32938436 335462871#0"/>
    <taz id="110201222" edges="-65040944#2 65040944#0"/>
    <taz id="110201311" edges="-24214232 24214232 61502109"/>
    <taz id="110201711" edges="-4611886"/>
    <taz id="110211311" edges="-86934328 -93628041#0 175479663 28110441#0 688149980#1 688149981#1 767859296#1 86934328 91569855#0 91569855#1 91569856 91569858 91569863#0 91569863#1 93628041#1 93628057#1 93628057#2"/>
    <taz id="110211411" edges="-111251391#3 -137954786 -182620302#2 -182620302#4 -182620302#6 -182620303 -24149429#4 -40583888 -4615403#2 -4615404#0 -4615404#1 -4615405#13 -4615405#7 -4615406#11 -4615406#3 -4615406#9 -4615407#4 -4615407#6 -4615407#9 -48377469#2 -511653652#1 -511653653#1 -511653657#1 -511653658 -552963268#2 111251391#4 137954786 150178892#7 182620302#3 182620302#5 189024466 19047393 19047484#0 24149429#0 295042489#0 311357732#1 334606648#0 335846074#0 40583888 40641234 4615403#0 4615404#0 4615404#1 4615405#0 4615405#8 4615406#10 4615406#4 4615407#0 4615407#5 4615407#7 48377469#0 511653651 511653652#0 511653653#0 511653655 511653658 552963268#0"/>
    <taz id="110211412" edges="-26287476#2 -29052147#1 -29052147#2 -29052147#3 -316869462#0 -316869462#2 -4615536#7 -4615620#4 -4615623#2 -4615624#3 -4615624#4 -4615628#2 110764153#0 110764153#2 111251388 175479659#12 175479659#13 175479659#8 206451464 206451465 25360667#0 26287476#0 268562214#0 268562215#0 281095736#0 281095736#5 281095764#0 284736594 285844578#0 288750965 29052147#0 29052147#2 29052147#3 29052147#4 29239824#0 299132392#0 316869462#0 316869462#1 333347376 333526814#0 337285330#0 338573779 338573780#0 346406233#0 38596500#0 38596501#0 4615402#0 4615492#0 4615615#0 4615621#0 4615624#0 4615624#4 4615628#0 511653657#0 8004032#0 8004032#2 8004033#0 8004033#2 93628050#2 93628051#2 93628051#3"/>
    <taz id="110211413" edges="-27095671#3 -27095671#5 -29052147#10 -29052147#8 27095671#4 29052147#9 310145076#0 310145077#0 316869460#0 316869461#0 316869464#0 318018238 351509721#0 44619068#0 44619068#2 44619069#0 451342499#0 451342499#2 4615743#1 4615777#0 4782478#1 4782482"/>
    <taz id="110211414" edges="-182614430#0 -182614430#2 -182614431#0 -182614431#2 -44851672#13 -44851678#6 -4615742#3 -4615743#3 -4615744#0 -4615744#3 -4615745#2 -4615745#3 -4615745#6 -4615782#0 -4615782#1 -625928996#2 -93628041#3 167405685#0 167405685#1 167895771#4 175479659#0 175479659#4 182614430#0 182614430#2 182614431#0 182614431#2 28935244 338573434#0 342418612#0 345816101#0 345816101#4 345817373 351704739#0 351704742#0 44851670#0 44851672#0 44851678#0 4615742#4 4615744#1 4615745#0 4615745#3 4615745#4 4615781#0 4615782#0 4615782#1 4616196#0 4789160#2 93628045#3"/>
    <taz id="110211415" edges="-26138864#0 -351509721#15 -351509721#17 -351509721#2 -4616192#1 -4616196#2 -4616196#4 26138864#0 26138864#1 316869458#0 351509721#16 351509721#18 351509721#3 4615742#0 4616192#0 4616192#2 4616196#3"/>
    <taz id="110211511" edges="-44851670#0 -44851670#3 -4615781#5 154339629 167895771#0 167895771#3 341080389#0 341080390 345816100 345817372#3 44851670#1 44851670#4 4615784#0 688155125 86934323#1 86934323#2 93628057#3"/>
    <taz id="110211512" edges="-128636794#1 -257244833#0 -257244833#3 -26138864#1 -26138864#2 -351509721#19 -351509721#21 -4615783#2 -4615783#3 -4615783#4 -4615784#1 -4616192#4 -746885631 126348151#0 257244833#0 257244833#1 26138864#2 351509721#20 351509721#22 4615783#0 4615783#3 4615783#4 4615783#5 4615785 4615786#0 746885629"/>
    <taz id="110211513" edges="-28133482#2 -28133482#3 28133482#0 28133482#3 28133482#4 440061667#0"/>
    <taz id="110211521" edges="-114684413#2 -114684413#5 -155190261#7 -28222110#3 -28536387#2 -44851670#7 -4789057 -485472400 -8084129#2 -8084132#10 -8084132#2 -8084132#5 114684413#0 114684413#3 151974158#0 155533124#11 155533124#3 155533124#4 155533124#5 155533124#6 155533124#7 155533124#8 155533124#9 167893753#0 167893753#2 167893753#3 167893757#0 167893757#1 167893757#2 167893757#3 167893757#4 167893760#0 167893760#1 167893760#2 167893760#3 167893760#4 167893762#0 167893762#2 167893762#3 167893762#4 167893762#5 167893762#6 167894827#0 167894827#1 167894827#2 167894827#3 167894827#4 167894829#0 167894829#1 167894829#2 167895773#0 167895773#2 167895773#3 167895780#0 167895780#1 171877513#2 28222110#0 28536387#0 288762496#0 288762497#0 29376344#0 29376344#4 29376345#0 29376345#2 29376346#1 29376346#3 338616239#0 440078644#0 440078647#0 458998067#0 4615457#0 4615465#0 4615465#2 4615465#4 4615465#6 4615780#0 4685636#0 4685638#0 4789056#0 4789056#1 4789057 485472400 53365275#0 53365275#2 53365281#0 8084129#0 8084132#0 8084132#11 8084132#3 8084132#6 8428399#0 86260988 93628042#2 93628042#4 93628042#5 93628042#6 93628042#7 93628042#8 93705439#2"/>
    <taz id="110211522" edges="-140149258#1 -140498882#3 -151974158#2 -151974158#3 -28197508#0 -28197508#1 -30422501 -351509721#22 -43115509#3 -440064037#2 -4615783#8 -4789051#4 -4789055 -4789062#2 -661400763 -69873799 -8084132#13 -8084132#16 -8084132#17 140149258#0 140498882#0 151974158#3 155533123#2 155533123#5 171851824#1 203884042#0 22741808#0 22741808#1 22741808#4 22741828#0 22741828#1 25162405#0 25950000#0 28197508#0 28197508#1 288767318#0 288767318#1 288767319#1 288767320#1 30422501 30710053 30710056 30710058 30710059#1 30710060 30710061 30710062#0 30710062#1 440078643#0 440078648#0 460217104#0 460217105#0 4615746#0 4615746#5 4615746#7 4685718#0 4789051#0 4789055 4789062#0 4791633 661400763 69873799 8084132#14 8084132#17 93705399#2 93705399#5 93707127#2"/>
    <taz id="110211523" edges="-127621245#0 -140498883#0 -140498883#3 -146911392#0 -146911396#7 -151128634#2 -154381206#8 -25950000#1 -26139323 -4685723 -4685731#1 -4685731#2 -667569667 127621245#0 128978595#0 140498883#1 146911392#0 146911392#1 151128634#0 154381206#0 154381296#0 25950000#3 26973375 295627704#0 439025652#0 440064037#0 4685719#0 4685723 4685730#0 4685731#1 4685731#2"/>
    <taz id="110211524" edges="-123033989#0 -123033989#1 -146911392#1 -146911392#2 -146911392#3 -154381296#1 -295627704#3 -310172811#2 -317183776 -4685718#1 -51069314 10596831#2 123033989#0 123033989#1 127361055#0 146911392#2 146911392#3 24540243#0 24540244#0 25162405#1 295627704#4 310172798#0 310172810#0 310172811#0 317183774#0 4045243#0 4045243#5 440061668#0 4615779#0 4616572#0 4782480#0 4782481#0 51075758 516827457#0 93707128#2"/>