<nodes>
    <join nodes="1828354157 1828354122 1828354123 1828354135 3198288572 3198288573 29794320 471801036 7201124035 29794215 471801039 564123493 7201123994 7201124037 7201124048 965845090 1828354136 7201123997 7201123993 7201124036 7201124047 7201124038 7201124052" id="oderbruchstr" type="traffic_light" tl="oderbruchstr"/>
    <join nodes="283038325 283038326 283045467" id="leipziger_axel-springer" type="traffic_light" tl="leipziger_axel-springer"/>
    <joinExclude nodes="283089492"/>
    <join nodes="28373972 3513423889 3513425993" id="molkenmarkt" type="priority"/>
    <join nodes="1387903273 262482676 6460260300" id="Georgenstr" type="priority"/>
    <join nodes="1468439357 1661140940 29123430 3837028201 98978100" id="rosa_luxemburg_platz" type="traffic_light" tl="rosa_luxemburg_platz"/>
    <joinExclude nodes="3619264717 3619264719"/>
    <join nodes="12614600 1783286748 1783286749 1792333588 1792333589 1792333590 1792333594 1792333596 1792333612 1792333620 1792333625 1792333626 1792343123 1792343124 2831096651 2831096653 2831096654 2831096655 29270276 29270294  1011319241 1783286745 1783286747 29270295  1011319291 1860618796 7169320573 7169320574  1783286750 1783286751  1792333600 7169320578  1792343134 7169320579  2831096652 7169320575  7169320576 7169320577" id="landsberger_alle" type="traffic_light" tl="landsberger_alle"/>
        
</nodes>
