<connections>      
    <connection from="-661400763" to="-8084132#17"/>
    <connection from="-28016312#3" to="23809670#0"/>
    
</connections>
