<edges>
    <delete id="122820534#0"/>
    <delete id="122820534#1"/>
    <delete id="-30422501"/>
    <edge id="-7137314551" from="295586663" to="295586662"/>
    <edge id="7137314551" from="295586662" to="295586663"/>
    
</edges>
