<?xml version="1.0" encoding="UTF-8"?>
<!-- generated on 2020-04-15 11:21:21.970000 by install_scenario_templates.py v1_5_0+1116-a526d4b47a
  options: -c C:\Users\arme_ma\Documents\Giuliana\Projekte\UrMo\GitHub\tsc\test_server.tsccfg <doubleminus>clean -v -p C:\Users\arme_ma\Documents\Giuliana\Projekte\UrMo\GitHub\tsc\data
-->
<tazs xmlns:xsi="http://www.w3.org/2001/XMLSchema-instance" xsi:noNamespaceSchemaLocation="http://sumo.dlr.de/xsd/taz_file.xsd">
    <taz id="23533" edges="-11845130#1 -159081775 -159081777#1 -159081777#3 -159081779#1 -176043805 -405100404#2 -4474915#1 -4579366 -4597334#2 -4611886 -55495482#0 -55495482#2 -9657820#0 -9657820#2 11845130#0 154041909#0 154041912#0 159081775 159081777#0 159081777#3 171484594 176043805 188240631 28108856#0 36259509#0 36259516#0 37289167#0 4474915#0 4579366 4597334#0 4611869#0 4611886 475533028 475533029 532727925#0 55495482#0 55495482#1 78298215#0 9657820#0 9657820#1"/>
    <taz id="23538" edges="-24214232 -32938436 -335462871#1 -4611869#2 -65040944#2 172421119#0 172421119#2 24214231#0 24214231#1 24214232 24214283 24214284 32938436 335462871#0 563341815#0 61502109 65040944#0 66071387#0 66071387#1 66071387#2 66071387#3 71143837"/>
    <taz id="23539" edges="195430952#0 29548010 35557588#0"/>
    <taz id="23593" edges="-131650081#4 -131650081#5 -153692984#4 -16571799#1 -16571799#2 -16571799#3 -169717723#3 -172078325#2 -172078325#3 -172078325#4 -172078684#1 -241886108#2 -24684997#0 -297373653#3 -312645512#2 -312651885 -312651887#1 -312651887#4 -320894149 -36689634#2 -369726993 -441788215 -4597202#0 -4597202#2 -4597205 -4597206#1 -4597206#5 -4597254#1 -46138135 -53257010#0 -53257010#1 -73310501#0 -73310501#3 -73310502#2 -778348345#0 131650081#0 131650081#5 144528130#0 153427725#6 153427725#7 153692984#0 154315269#0 154315269#1 16571799#0 16571799#2 16571799#3 168253001#0 168253001#1 169717722#0 172078325#0 172078325#3 172078325#4 24684997#0 26757071#0 26757071#4 291670891#4 291670891#6 297373653#0 312645512#0 312651884#7 369726993 4597202#1 4597202#3 4597206#2 4597254#0 46138135 53257010#0 53257010#1 551623421 6227796#0 778348345#1 83146233#0 84575573"/>
    <taz id="23594" edges="-108031933#2 -109902441#0 -109902441#1 -110785555#2 -111833185#1 -111833186#2 -11483007#2 -122820534#1 -132600840#1 -137630045 -147066248#8 -153698380#2 -155186522 -158023913#6 -15973619#12 -15973619#15 -15973619#8 -15973619#9 -15977422#0 -16374393#2 -168935757#2 -168935757#3 -168937986#4 -169999355#2 -172421119#1 -173296880 -176273730#2 -181472197#2 -182623931 -194069450#3 -195105328#0 -195105328#1 -195397561#4 -195411605#0 -196850606#0 -196850606#4 -196850606#5 -196850606#8 -197160273#3 -202156991#2 -210668637 -22972469#3 -22972470#1 -22972470#5 -22972473#2 -22972473#3 -22972473#6 -23017852#0 -23017852#3 -23017853 -23755718#3 -23755720#5 -23755731#0 -23755731#1 -23755739#4 -23755950#4 -23755961#1 -23755961#2 -24242835 -24242838#0 -24242838#1 -24242882#0 -24242882#3 -24242892#4 -24242892#5 -24242892#8 -243854725#3 -24509317#2 -24997595 -25042806#8 -28251222#1 -292429056#4 -292429062#3 -292429063#0 -292429063#1 -303084352#1 -320462163#3 -320462164#1 -326116286#2 -327462543#2 -327756248 -327756257#0 -327756257#1 -330840125#1 -335462874#2 -335462916 -335462921#5 -339201177#5 -35557143#4 -35557161#1 -35557161#3 -35557161#4 -35557161#6 -35578576#2 -356359316#5 -375311153#1 -375311155#2 -375311158#3 -375459781#2 -375459782#1 -375459783 -389101365#4 -38912785 -42102542#2 -42747980#2 -43156537 -43156728#4 -43231842#3 -43346200#4 -43376477#1 -43376693#2 -437325055#2 -437325056#2 -4396109 -4401967#2 -4402037#0 -4402037#2 -4412868 -453379904 -4588211 -4588215#5 -4588217#5 -4588219#1 -4588219#2 -4588222#1 -4588222#2 -4588224#2 -4597320#5 -4597322#7 -4597324#0 -4597324#3 -4597324#4 -4597325#2 -4610472#1 -4610472#2 -4610480 -4610524 -4610608 -4610610#0 -4610610#1 -4610610#2 -4610610#3 -4610612 -4611696#3 -4611706#1 -4611708#1 -4611708#2 -4611708#3 -4611710#2 -4611711#1 -4611712 -4611713#0 -4611713#1 -4611714#1 -4611714#11 -4611714#3 -4611714#9 -4611718#0 -4611718#1 -4611773 -4612403#3 -4612403#4 -4612412 -461526153 -465376254 -474362271 -4773029#2 -47755711#2 -505475202#1 -505526660#2 -508410319#1 -52328295#2 -533509622#1 -533509622#6 -542983663 -563341815#1 -65040946#2 -65040958#2 -66071366#1 -66071366#3 -66071370 -66071373#3 -66071387#0 -66071387#1 -66071387#2 -66071387#4 -665241888#1 -67099789#3 -67099797#0 -67099797#1 -67099797#2 -67627347 -67627353 -710761407#1 -710761407#4 -71143837 -755551646#1 -81113584#2 -85255869#2 -85255870#2 -98399537#0 108031933#0 108488061#0 108488061#1 108488061#2 109902441#0 109902441#1 110032714#0 110785555#0 110786129#0 111833185#0 111833186#0 114667396#0 11483007#0 11845184#0 11845184#3 11845212#0 120359703 120675240#0 122820534#0 131577612#0 131577613#0 132600840#0 144014228#0 144014228#1 144014230#0 144014230#1 144014230#2 144014233#0 144014233#1 144014237#0 144014237#1 144014242#1 147066248#0 153698380#0 153698394#1 153698394#2 153698402#0 153698402#1 153698413 154041918#0 154041920 155186522 158023913#0 159081772#0 159081772#2 159081773 159081774#0 159081779#0 15971197#0 15973619#10 15973619#14 15973619#9 15977422#0 16374191#0 165409971#2 167272512#0 167272512#2 167272512#4 167272512#6 168514764 168514765#0 168515533#0 168515533#5 168928174 168935756#0 168935757#0 168935757#3 168937986#0 169195795#0 169195795#2 169195795#7 169195795#8 169999355#0 171423001#0 173296880 179780067 181472197#0 182623931 188386313#0 190447768#1 191556835#0 194069450#0 195411594#3 195411601#1 196850606#0 196850606#1 196850606#5 196850606#6 196850607#0 196850608#0 196850609#0 199847241#0 199847244#0 199847247#0 199847252#0 202817674#0 207363168 207364191#1 207364192#2 207364192#3 207364192#4 210668637 22820560#0 22820560#1 22972195#2 22972219#0 22972454 22972469#0 22972470#0 22972470#2 22972473#0 22972473#3 22972473#4 23017852#1 23017853 23121445#0 233833576#0 236092221#0 236092221#2 23755718#0 23755720#0 23755731#0 23755731#1 23755739#0 23755950#0 23755961#0 23755961#2 24214089#0 24214089#2 24214089#4 24240245#0 24240246#0 24242835 24242838#0 24242838#1 24242838#2 24242882#0 24242882#1 24242892#0 24242892#5 24242892#6 24243052#0 24243052#4 24243052#5 24243092#0 243854725#0 243854725#4 24509317#0 24509318 24913267#0 24913304#0 24913304#2 24997595 251884680 25776568#0 25945760#0 28251222#0 292429056#0 292429062#0 292429063#0 292429063#1 303084352#0 305153173 320420912#0 320420913#0 320420916#0 320462164#2 327462543#0 327756248 327756257#0 327756257#1 328064918#0 330840125#0 335462916 335462921#0 339201250#0 339201251#0 340498976#1 340498976#10 340498976#3 340498976#7 340498982#0 340498982#3 340498982#8 340498988#0 342968607#0 34832961#0 354528932 35557143#0 35557161#0 35557161#2 35557161#4 35557161#5 35578559 35578576#1 356359316#0 36259518#0 36259520#0 375311153#0 375311154#0 375311154#4 375311155#0 375311156#0 375311157#0 375311158#0 375312063#0 375459782#0 375459783 389101365#0 389101373#0 389101374 38912785 404598738#0 42102542#0 424323348 42747980#0 42747981#0 42747981#1 42747981#3 43156537 43230886 43231842#0 43346200#2 43348945#0 43348945#3 43376693#0 437325055#0 437325056#0 4396109 4396503#0 4401967#0 4402014#0 4402037#0 4402037#1 4402228 4412868 453379904 4588211 4588215#0 4588217#0 4588219#0 4588219#2 4588220#0 4588222#0 4588222#2 4588224#0 4588225#0 458953718 4597320#0 4597322#0 4597324#0 4597324#1 4597324#4 4597325#0 4597326 4610476#1 4610479#0 4610480 4610600 4610607 4610608 4610610#0 4610610#1 4610610#2 4610610#3 4610612 4611693#2 4611696#1 4611696#4 4611706#0 4611708#0 4611708#2 4611708#3 4611711#0 4611712 4611713#0 4611713#1 4611714#0 4611714#10 4611714#2 4611714#4 4611718#0 4611718#1 4611722#0 4611722#1 4611773 4612403#0 4612403#4 4612410#0 4612410#7 4612412 4612429#0 461526152#0 461526153 465376243#0 465376243#1 465376256#0 47707170#0 47707170#4 47707171#0 47707171#5 4773029#0 4773463#1 4773464#0 4773464#1 47755711#0 48859715#0 48859718#0 48859718#2 492340367 505526660#0 508410318 508410319#0 52328295#0 533509622#2 54048862#0 54048863 541763974 541763977#4 542983663 54781811#0 555858098#0 625843712 65040958#0 66071366#0 66071366#2 66071370 66071390#0 66071390#1 66071390#2 66514478 665241888#0 67099789#0 67099797#0 67099797#1 67099797#2 67627350 67718316#0 681299267#0 681299268 68647306#0 68711084#0 688761153 707100745#0 707107510#0 710761406#0 710761407#0 710761407#2 710761408#0 734578686 753316505#0 753316506 753730627#0 755551646#2 755551647 81113584#0 82488124#0 82488125#0 82488125#1 83517334#1 83517336#0 83517336#3 85255869#0 85255870#0 93584121#0 93584121#1"/>
    <taz id="23595" edges="-105352753 -107747046#7 -109819340#3 -110464119 -111251382#3 -112128825#0 -112128825#1 -117611349#1 -131505631#1 -147604951#1 -148458500#1 -153692976#0 -153692976#2 -153698387#2 -153698390#1 -153698391 -153698415#4 -156364570#0 -156364570#4 -164039095#0 -164039095#1 -165415464#2 -168940071#1 -168940071#4 -168942727#1 -168943639#3 -168943640#4 -168943642#7 -169660686#0 -169719829#5 -172080041 -172421119#2 -173197451#1 -173197451#4 -173197451#6 -176031295 -176031303#2 -176031304#6 -176031315#2 -176043794 -176043799#2 -176043804#1 -176043807#0 -176043807#11 -179780067 -188240629#1 -188914559 -19002363#0 -19002363#10 -19002363#2 -194962398#3 -195091665 -195104960#5 -195418554#3 -195430952#1 -195430953 -195430954 -195430955#1 -195430959#1 -195430960#1 -19801644#0 -19801644#3 -206718346#4 -206718346#6 -222328410 -225400578#1 -22954356#7 -23121445#5 -231882067#1 -23294704 -23386522#7 -23386525#0 -23386525#2 -23443935#2 -237209664 -23813206#2 -23852056#2 -23859715#2 -238933341#1 -24214283 -24214284 -24241762#2 -24241762#3 -24241762#6 -24241790#3 -24241797#3 -24243101 -24243107#1 -24243107#2 -24243245#1 -24243245#2 -247187765 -247402308 -24803471#0 -24803471#2 -24803495#2 -24990040 -24992424#2 -24992424#5 -24993933#4 -25258502 -25294729#0 -25294729#1 -25302636#3 -25360631#2 -25360632#2 -25360639#5 -25945966 -267542609 -267542610#1 -268002743 -268002745 -268002748#1 -268002750 -274754088#4 -276701303#2 -28016312#3 -286774655#2 -29054704#4 -291670881#6 -291686436#2 -291696979#3 -291696983#4 -29311581#2 -29312187 -30196049 -306746900#2 -30705210 -30705211#3 -30705211#6 -310176513#4 -310176513#7 -310176513#9 -310177222#0 -310177222#4 -312176585#2 -312651888#0 -312651888#1 -312651888#2 -315214529#12 -315214529#13 -31748765#5 -318015897#1 -31912630#2 -31912630#4 -31912630#6 -327481193 -327518240#1 -32805741#2 -328426193#2 -328426213#2 -328426220#2 -328426224 -328426227#1 -328426227#3 -328426230#2 -32858408#0 -32858408#1 -33177962#3 -339201185 -339201251#0 -35556702#1 -35557324#1 -36689633#0 -36689633#3 -36892597#1 -36892597#2 -369223457#0 -369223457#1 -369223458#0 -369223458#1 -370359204#2 -371927739#1 -371927739#3 -374734384#1 -374734384#4 -387892378 -39350082#0 -4083446#2 -427637455 -427970090 -4296467#1 -4296469#1 -4296469#2 -4296469#4 -43053691#0 -43053691#1 -43159545#1 -437325046#2 -437325047#3 -437325050 -437325051#1 -437325054#2 -4383280#6 -4383283#0 -4383283#1 -4396823#0 -4396823#1 -44122832#0 -44122832#1 -448076850 -448715094 -454285423#4 -455097481 -4566442 -4570580#2 -458953719#1 -4592739#1 -4592757#0 -4592757#2 -4597199 -4610356 -4610374 -4610375 -4612403#5 -4612410#6 -4612410#8 -4612414#1 -4612416#3 -4612416#6 -4612422#1 -4612427#4 -4612429#1 -4612431#3 -4612871#8 -4612875#3 -4612966#1 -4612968#3 -4612970#1 -4612976 -4613293#0 -4613298#1 -4613299#1 -4613299#3 -4613299#4 -4613300#2 -4613300#8 -4613300#9 -4613306#0 -4613306#1 -46138134#1 -4615494#6 -4615496#4 -4615497#4 -4615497#6 -4615497#7 -4615536#7 -4615546#0 -4615546#2 -4615599#6 -4615599#7 -4616595 -465398528 -478396988 -4790825#2 -4790879 -48303485#3 -4887452 -493008123#1 -493008124#1 -495066404 -497247980 -51167934#4 -534588621 -541295974 -541295976#0 -541295976#2 -55741054 -560370523 -562707499 -566764344 -566764345 -56680556#0 -56680556#2 -58519466 -60333308#1 -60333317#0 -6227658#1 -6227658#2 -6228081 -62363401 -625647965 -62745347#2 -628330888 -65426521#1 -671403217 -694626562 -710342473#3 -713576590 -713577963 -717177007#0 -717177007#1 -717741321#0 -717741321#3 -717741321#4 -72678523#0 -73310497#2 -73310499#1 -73310499#2 -738177360#1 -740538839#0 -740538839#1 -740538839#2 -740848375 -743631784 -744938428 -750204886 -751595930 -755340907 -76212441#3 -778348345#1 -780281639#0 -780281639#1 -7913573#10 -7917219#3 -80715076#0 -80715076#3 -82652406#1 -82652816 -82658674#1 -82658674#5 -83510030 -84960595 -84960597#3 100113767#1 100405009#0 101694131#0 101694131#1 101699672 101699676#1 101699676#2 101699676#3 101699676#4 101699679#0 101699679#1 101699679#2 101699679#3 103360642#0 104590139#1 107747046#0 109819106#0 109819340#0 110464119 11103418 111251382#0 112128418#0 112128418#3 112128419#0 112128422#0 112128422#2 112128825#0 112128825#1 117611349#0 118423895 128396190#0 131505631#0 131650082 143931934 143931935 144014234#3 144014234#4 144528130#2 144529199#2 144529199#5 144529199#7 148449390#0 148449390#1 148452597#0 148452597#1 148452597#2 148452597#3 148452597#4 148457212#0 148457212#1 148457213#0 148457213#1 148458493 148458495 148458497#0 148458500#0 148811539#0 148811539#2 148811539#3 148811540#1 150178427#2 150178427#3 150178429 150178430#1 150178430#2 150178431 150178892#0 150178892#2 150178892#3 150178892#4 150178892#5 150178893#10 150178893#11 150178893#12 150178893#13 150190354 150201969#1 150201969#2 150201973#1 150201973#3 150201973#4 150201973#5 150201974 150201975 150204300#0 150394034#0 150394034#3 150394034#4 150394034#5 150394035#0 150394035#3 150394035#4 150394036#1 150476514 150478184#0 150478184#1 150478184#4 150478185#0 153424809#2 153424809#4 153424809#5 153424809#6 153424809#8 153424817#1 153424828#0 153424828#1 153424828#2 153427725#0 153454794#0 153454794#2 153454794#3 153454794#4 153454794#5 153522299#0 153522299#2 153522299#3 153522302#0 153522303#0 153537606#1 153537614#1 153537614#2 153537614#3 153689810#0 153692976#0 153692976#1 153692978#0 153698387#0 153698387#3 153698390#1 153698391 153698415#0 154043350 154305216#0 154305216#2 154305216#3 154305216#4 154305216#5 154305216#6 154305219 154315269#4 154321049#0 154321049#2 154449601#2 154449601#3 154449601#4 154449601#5 154449601#6 156364556#0 156364559#0 156364559#2 156364559#5 156364559#7 156364562#0 156364566#0 156364570#1 158785194#2 163368988#2 164039095#0 164039095#1 165409970 165415452#0 165415454#0 165415464#0 165450001#0 167140669#0 167140669#1 167140669#2 167140669#3 167140670#0 167140670#1 167140670#3 167140670#4 168249863 168253001#5 168253001#6 168940071#0 168940071#2 168943639#0 168943639#4 168943640#0 168943642#0 169659401 169660686#0 169660686#1 169717723#0 169719829#0 169719829#6 169953964#0 169953964#2 169953964#3 169953965#0 170311604#0 170311604#4 172080041 172082586 172082587 173197451#0 173197451#2 173197451#6 176031295 176031303#0 176031304#0 176031312 176031315#0 176043794 176043803#1 176043806#0 176043807#1 177372522 183415643 187103791 187103792#0 187111590#0 188044903#0 188046016#0 188047750 188914559 189133035#0 189133036#0 18997847#0 18997847#2 19001381#0 19002357#0 19002363#0 19002363#1 19002363#3 19002403#0 194962398#0 195105328#1 195400997#0 195400997#1 195401006 195401017#3 195401017#5 195407521 195418554#0 195418555 195430953 195430954 195430957#0 195430959#0 196520271 19801533 19801548#0 19801618#0 19801644#0 19801644#1 202156991#0 202156994#0 202157002#0 204032443#0 206718346#0 206718346#5 216524084#0 222328410 222389420#0 225400578#0 22954356#0 22954357#0 22962554#1 22962554#2 22962555#0 22962555#2 231882067#0 23294704 23386522#0 23386522#8 23386525#0 23386525#1 23443935#0 236523981#0 237209664 23809670#0 23812656#0 23813206#0 23851917#0 23851930 23852053#0 23852056#0 23859715#0 238682696 23960874#0 24241762#0 24241762#3 24241762#5 24241790#0 24241797#0 24242440#0 24243107#0 24243107#2 24243245#0 24243245#2 24540242#0 246044841#0 246044843#0 246044844#0 246044848 247187765 247402308 24803471#0 24803471#1 24803495#0 24913519#0 24913523#0 24913523#2 24913524#3 24914109 24914141#0 24914141#8 24915070#0 24915070#2 24990040 24992424#0 24992424#3 24992428 24993933#0 25086766 25086767#0 25086769#0 25258502 25294728 25294729#0 25294729#1 25302636#0 25360631#0 25360632#0 25360639#0 254807835#0 256968789#0 25957881#0 25957881#1 26506567#0 26687610 267542609 267542610#0 26757071#5 268002743 268002745 268002748#0 268002750 274754088#0 275177453 276701303#0 27779023#0 27779097#0 280175580 280667873 280667874 280669754 281095736#0 281095736#5 282760693#0 282760693#1 282760693#3 282760693#4 28341062 284729550#0 284736594 284761029#0 284761029#1 286774655#0 28679067#0 28679067#1 287638448#0 287764737#0 288585010 288749951#0 288749951#4 289830064 289966097 289966281 289966845 289967595#0 29054704#0 291670881#0 291670885#0 291670885#1 291670890#0 291670890#3 291670890#7 291670890#9 291670891#2 291670891#3 291670892#1 291670892#2 291686434#2 291686436#0 291696979#0 291696980#0 291696982#0 291696983#1 29177662#0 29290632#0 29311581#0 29312187 295445243 296122995#0 296598505 296599839#0 298473729 299397170 301167584#0 30122986#0 30123145#0 301241483#2 301733774#0 301733774#1 301733776 30196049 304627753#0 306746900#0 30705210 30705211#0 30705211#4 307098733#0 307098733#1 307098734#3 30719903#0 30719903#1 30719903#2 30720544#1 30721656#0 30721656#1 30721656#2 30721656#3 30721656#4 30721660#0 30721660#2 30721660#4 30721662#0 30721662#1 30721662#2 30721662#3 30825182 30826268#0 309155392 309300320#0 309300321#0 309479676 310176513#5 310176513#9 310177222#0 310177222#1 31112516#0 31112516#1 311690284 312176585#0 312357351 312533961#0 312533962#0 312534044#2 312651885 312651887#0 312651887#2 312651888#1 312651888#2 312654701#0 312654701#3 312654705#0 312654706#0 312654706#4 313195075 315214529#13 316746323#0 316975485#0 316975485#1 317013528#0 317013528#4 317013528#5 317401282 318015897#0 318915601#0 318915602#2 31912630#0 31912630#4 31912630#5 31912630#7 319339413#0 320894149 327481193 327518240#0 32805741#0 328426193#0 328426208#0 328426213#0 328426220#0 328426224 328426227#0 328426227#2 328426230#0 328426236#0 328426251#0 328426253 328426256#0 328426258#0 32858408#0 32858408#1 329612224 331114772#1 331114772#2 331114772#4 331114772#8 331114772#9 33177962#0 33301683 339201251#1 344594961 344594962 344594965#0 344594966 346583313#0 34848160#0 35269774#0 35556702#0 35557324#0 36689633#0 36689633#1 36689634#0 36892597#0 36892597#2 369223457#0 369223457#1 369223458#0 369223458#1 369223459#0 369223460#0 369223461#0 370359204#0 370617120#0 370617124#0 371927739#0 371927739#3 374734383#0 374734384#0 374734384#2 374734389#0 380240681 388702047#0 388702049#0 388702049#2 388702049#3 389705415#1 39350082#0 39350082#1 4083446#0 414976603 415280722 415388550#0 42103020#0 42103021 421641064 421641065#0 427637455 427970090 4296467#0 4296468#0 4296469#0 4296469#2 4296469#3 43053691#0 43053691#1 43087121#0 43159545#0 43164692 437325046#0 437325047#0 437325047#5 437325048#0 437325050 437325051#0 437325054#0 4383280#0 4383283#0 4383283#1 4396823#1 4403526#0 4403559#0 44122832#0 44122832#1 4412886#0 441788215 443401746#1 44427219#1 44427220#0 44427220#2 448076850 454285423#0 455097481 4566442 457031289 4570580#0 4592757#0 4592757#1 4597199 4597202#0 4597207#0 4610351#0 4610352#0 4610353 4610354#0 4610354#3 4610355#0 4610356 4610362#0 4610362#4 4610362#5 4610362#6 4610362#7 4610362#8 4610364#0 4610374 4610375 4610472#0 4610472#2 4611726 4612403#5 4612414#0 4612416#0 4612416#4 4612422#0 4612423#0 4612427#0 4612431#0 4612871#0 4612873 4612961#0 4612961#2 4612963 4612964#0 4612964#1 4612965 4612966#0 4612968#0 4612969#0 4612970#0 4612973#0 4612974#0 4612976 4612981#0 4613110#0 4613110#2 4613286#0 4613286#3 4613286#5 4613292#0 4613293#0 4613293#1 4613294#0 4613294#2 4613295#0 4613295#1 4613295#2 4613296#0 4613297 4613298#0 4613299#0 4613299#2 4613299#4 4613300#0 4613300#3 4613300#9 4613306#0 4613306#1 4613308#0 46138134#1 46138138#0 46140373 46140376#1 46140378 46140379#0 46140379#1 46140380 46140381 46140383 46140384 46140385 46140393 4614664 4615496#0 4615497#5 4615497#7 4615536#0 4615546#1 4615547#0 4615594#0 4615597#0 4615599#0 4615599#7 4615603#0 4616595 46517263#2 46517263#3 46517263#4 46517264#2 465376253#0 465398529#0 47016365#0 4773465#0 478396988 4790801 4790804#0 4790813#0 4790822 4790825#1 4790833#0 4790843#0 4790843#4 4790869#0 4790869#4 4790879 4791000#0 4791000#3 4791000#4 4840859#0 48664717#0 4878045#0 4887452 490365295#0 492609984 492609985#0 493008123#0 493008124#0 495066404 497247980 51167934#0 511748316 534588621 54048862#4 541295974 541295976#0 541295976#2 541295978#0 54698846#0 55741054 566764344 566764345 56680556#0 56680556#1 576351127 60333308#0 60333309#0 60333309#1 60333311#0 60333312#0 60333313 60333314 60333317#0 60333317#1 606078065 606078071#0 61583424#0 6227654#0 6227654#4 6227656 6227658#0 6227658#2 6228081 6228154#0 6228154#1 62745347#0 65426521#0 66311464#0 66514427#0 66514452#0 694626562 708296765#0 713576589#0 713576590 713577963 717177006#0 717177007#0 717177007#1 717741321#0 717741321#1 717741321#4 72157174#0 72678523#0 72678523#2 73310497#0 73310499#0 73310499#2 73310501#0 73310501#1 73310502#0 738177360#0 738290009#0 740538839#1 740538839#2 740538839#3 740848375 749876418#4 750204886 751595929#0 755340907 756306892 76212441#0 77348147 780281639#0 780281639#1 7913573#0 7917219#0 80715076#0 80715076#1 81112790#0 82639450 82649618#0 82652409#0 82652816 82654055#0 82658674#2 82659290#0 83146233#2 83146233#3 83510030 83517332#1 84575572#0 84575572#1 84960595 84960597#0 86208412#1 86208412#3 86208412#4 86208412#5 86220069#0 93584120#0 93584120#2 93584120#3 93584120#4 93628049#0 94351499"/>
    <taz id="23596" edges="-111531489 -111740159#8 -11923625 -11923627#10 -154381200#7 -154381219#6 -154381294#2 -164681105#2 -165333156#2 -169319618#8 -175912412#1 -175913914#1 -175913915 -182622175#4 -227965802#1 -23343818#12 -23343818#5 -23343819 -238933356#1 -240200873 -25008068 -25008074#2 -25278602#5 -25278611#3 -265856695#1 -268524821 -271049536#3 -271674186 -271674187 -271674355#0 -271674355#2 -271674356#2 -27190701 -272972063 -272972064#1 -272972064#4 -273390876#15 -273390876#19 -273390876#2 -273390876#21 -273390877#2 -276457310#2 -276457310#6 -276457310#7 -277851613#1 -279661480#3 -279930530 -281698811#3 -283919155#3 -284945379 -316699201#1 -316894994#3 -320261155#1 -32555844#3 -32555845#1 -32555845#5 -35556490#5 -37287195#2 -37287196#2 -37287198#2 -37287199#4 -37287199#5 -37287200#3 -37289104#2 -37452234 -38505062#3 -419527299#3 -419527312#1 -419527312#3 -421793001#2 -44578427#2 -4616239#2 -4616239#7 -4616242#3 -4616246#3 -4616246#5 -4616246#8 -4616248#0 -4616248#2 -4616249#1 -4616249#4 -4616250#2 -4616567#2 -4616569#0 -4616573#2 -4616575#0 -4616575#1 -4616576#7 -4616577#5 -4616577#7 -4616579#4 -4616599 -461900066 -4685757#1 -4685758#1 -4685759#2 -4685763#1 -4685763#4 -4741943#1 -4782519#5 -48907691#3 -5011545#1 -52328297 -609032131 -628748767 -66514469 -72984394#1 -8150977 102773668#0 111531489 111740159#0 11923625 11923627#0 11923628 154381200#0 154381219#0 154381294#0 164681105#0 169319618#0 175912412#0 175913914#0 175913915 182622175#0 189037368#0 189042514#0 19047101#0 22055007#0 22055263#0 225049512 23343818#0 23343818#6 23343819 23418303#0 238933356#0 240195323 240200483#0 24940950#0 24940950#2 24940950#3 25008068 25008074#0 25278602#0 25278611#0 260235998#0 260235998#4 265856695#0 268524821 270519574#0 270731298#0 270731300#0 271049534 271674186 271674187 271674355#0 271674355#1 271674356#0 27190701 272972063 272972064#0 272972064#2 273390876#16 273390876#20 273390876#4 273390877#0 276457310#0 276457310#3 276457310#7 277850416 277851613#0 278029298#0 279673429#0 281698811#0 281751681 283919155#0 284743461#0 284757122 284945379 284961748#0 293399724#0 302694753#0 30825225 316869460#0 316869461#5 316869465#0 317878192#0 317878311#0 31912620 31912622#0 31985151#0 32555844#0 32555845#0 32555845#2 35556490#0 370617111#0 37287190#0 37287195#0 37287196#0 37287197#0 37287198#0 37287199#0 37287199#5 37287200#0 37289104#0 37294333 37451591#0 37452234 38505062#0 389400779 389705423#1 419527299#0 419527306#0 419527306#1 419527312#0 419527312#2 440061667#0 44578427#0 4615777#0 4616239#0 4616239#3 4616242#0 4616246#0 4616246#4 4616246#6 4616248#0 4616248#1 4616249#0 4616249#2 4616250#0 4616518#0 4616518#7 4616567#0 4616569#0 4616569#1 4616570#0 4616572#0 4616573#0 4616575#0 4616575#1 4616576#0 4616577#0 4616577#6 4616579#0 4616579#5 4616599 461900067#0 4685757#0 4685757#2 4685758#0 4685759#0 4685763#0 4685763#2 472360197#0 4741943#0 4741944 4741948#0 4741948#4 4782478#1 4782514#1 4782519#0 4791643#1 4791643#2 48907691#0 5011545#0 52328297 609032131 61737909#0 628748767 63031918#0 66514469 67088324#0 76865761#0 76865761#4 76865763#0 8150977 90993870#0"/>
    <taz id="23597" edges="-111251391#3 -128636794#1 -137954786 -182614430#0 -182614430#2 -182614431#0 -182614431#2 -182620302#2 -182620302#4 -182620302#6 -182620303 -24149429#4 -257244833#0 -257244833#3 -26138864#0 -26138864#1 -26138864#2 -26287476#2 -27095671#3 -27095671#5 -28133482#2 -28133482#3 -29052147#1 -29052147#10 -29052147#2 -29052147#3 -29052147#8 -316869462#0 -316869462#2 -340606517#3 -340606518#1 -340606518#4 -351509721#15 -351509721#17 -351509721#19 -351509721#2 -351509721#21 -351509721#22 -40583888 -44851670#0 -44851670#3 -44851670#7 -44851672#13 -44851678#6 -4615403#2 -4615404#0 -4615404#1 -4615405#13 -4615405#7 -4615406#11 -4615406#3 -4615406#9 -4615407#4 -4615407#6 -4615407#9 -4615620#4 -4615623#2 -4615624#3 -4615624#4 -4615628#2 -4615742#3 -4615743#3 -4615744#0 -4615744#3 -4615745#2 -4615745#3 -4615745#6 -4615781#5 -4615782#0 -4615782#1 -4615783#2 -4615783#3 -4615783#4 -4615783#8 -4615784#1 -4616192#1 -4616192#4 -4616196#2 -4616196#4 -48377469#2 -511653652#1 -511653653#1 -511653657#1 -511653658 -552963268#2 -625928996#2 -671026860 -671026861#3 -746885631 -86934328 -93628041#0 -93628041#3 110764153#0 110764153#2 111251388 111251391#0 111251391#4 126348151#0 137954786 150178892#6 150178892#7 150178893#3 150178893#4 150178893#8 150178893#9 150201969#0 154339629 167405685#0 167405685#1 167893753#3 167893757#4 167893760#0 167893762#5 167893762#6 167894827#3 167894827#4 167894829#1 167894829#2 167895771#0 167895771#3 167895771#4 175479659#0 175479659#12 175479659#13 175479659#4 175479659#8 175479663 182614430#0 182614430#2 182614431#0 182614431#2 182620302#3 182620302#5 189024466 19047393 19047484#0 19048563#0 19048563#2 194994996#0 194994996#2 203884042#0 206451464 206451465 24149429#0 24968370#0 25360667#0 257244833#0 257244833#1 26138864#0 26138864#1 26138864#2 26287476#0 268562214#0 268562215#0 27095671#0 27095671#4 281095764#0 28110441#0 28133482#0 28133482#3 28133482#4 285844578#0 288750965 288767318#0 288767318#1 28935244 29052147#0 29052147#2 29052147#3 29052147#4 29052147#9 29239824#0 295042489#0 298912688#0 298912688#4 299132392#0 299605821 310145076#0 310145077#0 311357732#1 316869458#0 316869459#0 316869461#0 316869462#0 316869462#1 316869464#0 318018238 333347376 333526814#0 334606648#0 335846074#0 337285330#0 338573434#0 338573779 338573780#0 340606520#0 341080389#0 341080390 342418612#0 345816100 345816101#0 345816101#4 345817372#3 345817373 346406233#0 351509721#0 351509721#16 351509721#18 351509721#20 351509721#22 351509721#3 351704739#0 351704742#0 38596500#0 38596501#0 40583888 40641234 440061668#0 440078647#0 44619068#0 44619068#2 44619069#0 44851670#0 44851670#1 44851670#4 44851672#0 44851678#0 451342499#0 451342499#2 460217101 460217103#0 460217104#0 460217105#0 4615402#0 4615403#0 4615404#0 4615404#1 4615405#0 4615405#8 4615406#0 4615406#10 4615406#4 4615407#0 4615407#5 4615407#7 4615457#0 4615468 4615492#0 4615615#0 4615621#0 4615623#0 4615624#0 4615624#4 4615628#0 4615742#0 4615742#4 4615743#1 4615744#1 4615745#0 4615745#3 4615745#4 4615781#0 4615782#0 4615782#1 4615783#0 4615783#3 4615783#4 4615783#5 4615784#0 4615785 4615786#0 4616192#0 4616192#2 4616196#0 4616196#3 46517263#0 46517263#1 4782480#0 4782481#0 4782482 4782483#0 4789160#2 4790839#0 48377469#0 511653651 511653652#0 511653653#0 511653655 511653657#0 511653658 552963268#0 688149980#1 688149981#1 688155125 746885629 767859296#1 8004032#0 8004032#2 8004033#0 8004033#2 86934323#1 86934323#2 86934328 91569855#0 91569855#1 91569856 91569858 91569863#0 91569863#1 93628041#1 93628045#3 93628050#2 93628051#2 93628051#3 93628057#1 93628057#2 93628057#3 94351504#3"/>
    <taz id="23598" edges="-120948266 -154261294#0 -154261294#1 -154261294#3 -22036538#3 -26299675#0 -26299675#1 -360996659 -4614987#4 -4615061#1 -4615062#0 -4615062#1 -4615062#2 -4615063#2 -4615063#3 -4615063#6 -4615063#7 -4615066#0 -4615066#1 -4615066#2 -4615066#4 -462346349 -69755075 109804590#0 109804590#2 120948266 147646826 150178893#0 154261294#0 154261294#1 154261294#2 173149682#0 187091991 188283090#0 19048488#0 19048488#2 194995004#0 232070355#0 24968394#0 26299675#0 26299675#1 26299675#2 300401898 318031557#0 318031558#1 340606517#0 340606517#4 340606518#0 340606518#2 340606538#0 360996659 38596496#0 4484427#0 4613112#0 4614987#0 4614989#0 4615034#0 4615034#3 4615034#6 4615058#0 4615058#1 4615061#0 4615062#0 4615062#1 4615062#2 4615063#0 4615063#3 4615063#4 4615063#7 4615066#0 4615066#1 4615066#2 4615066#3 4615467#0 4782523#0 4790838#0 671026860 69755075 94351504#4"/>
    <taz id="23599" edges="-102984483 -154046793 -180331459 -180331460#0 -180331460#1 -180331460#2 -182690326#2 -245187317 -373389574#4 -44427221#2 -4606231#0 -4606231#1 -4606231#2 -4615003#2 -4615003#3 -84575573 102983787#0 102984483 148811538#0 148811540#0 180331459 180331460#1 180331460#2 182690326#0 24326506#0 24684997#1 26652030#0 288749954#0 312651884#0 312651884#2 312651884#3 319339413#3 331114770 331114772#0 373389574#0 42348713#0 44427221#0 4606231#0 4606231#1 4606231#2 4615003#0 4615003#3 4615362 598692947#0 86208412#6"/>