<routes xmlns:xsi="http://www.w3.org/2001/XMLSchema-instance" xsi:noNamespaceSchemaLocation="http://sumo.dlr.de/xsd/routes_file.xsd">
    <trip id="1000019_1000003_813_0" depart="135131" fromTaz="-773935491" toTaz="53500090" type="passenger"><param key="taz_id_start" value="110100111"/><param key="taz_id_end" value="110100112"/></trip>
    <trip id="1000005_1000001_817_0" depart="135225" fromTaz="733482192" toTaz="833290986" type="passenger"><param key="taz_id_start" value="110100111"/><param key="taz_id_end" value="110100112"/></trip>
    <trip id="1000005_1000001_839_0" depart="136545" fromTaz="833290986" toTaz="897734575" type="passenger"><param key="taz_id_start" value="110100111"/><param key="taz_id_end" value="110100112"/></trip>
    <trip id="1000019_1000003_850_0" depart="137351" fromTaz="53500090" toTaz="53655202" type="passenger"><param key="taz_id_start" value="110100111"/><param key="taz_id_end" value="110100112"/></trip>
</routes>
