<?xml version="1.0" encoding="UTF-8"?>
<!-- generated on 2020-04-01 15:30:50.220000 by install_osm_scenario_templates.py v1_5_0+1066-d6f17e7308
  options: <doubleminus>clean -v -p data
-->
<tazs>
    <taz id="-102984483" edges="-102984483 -112128825#1 -180331460#2 -23294704 -247402308 -369223457#0 -44427221#2 -4613293#0 -4613299#1 -4613299#3 -4613299#4 -4613300#2 -4613300#8 -4613300#9 -717177007#0 102983787#0 102984483 109819106#0 112128825#1 143931934 153424809#8 153424817#1 153424828#0 153424828#1 153424828#2 153427725#0 180331460#2 23294704 24326506#0 247402308 312651884#0 312654701#0 312654701#3 312654705#0 312654706#0 312654706#4 319339413#3 369223457#0 369223459#0 414976603 42348713#0 44427219#1 44427221#0 4613293#0 4613293#1 4613294#0 4613294#2 4613296#0 4613297 4613299#0 4613299#2 4613299#4 4613300#0 4613300#3 4613300#9 4615362 4790804#0 717177006#0 717177007#0 83146233#3 84575572#1"/>
    <taz id="-103066047#2" edges="-103066047#2 -103066047#3 -103066047#4 -112441857#1 -11273911#3 -154381214 -22742007 -25376553#3 -33685647#3 -4685880#1 -4688786#0 -4688786#1 -511855927 -97133107#3 103066047#0 103066047#3 103066047#4 104765080#0 104765080#1 104765080#2 104765080#3 106863633#1 106863633#2 106863633#3 106863633#4 106863638 112441857#1 11273911#3 154381214 154381230 22742007 24864947#18 24864947#19 24864947#20 24864947#21 24864947#22 25376553#2 33685647#1 4685880#0 4688786#0 4688786#1 4791641#2 4791641#3 4791641#4 4791641#5 97133107#0"/>
    <taz id="-103066047#3" edges="-103066047#2 -103066047#3 -103066047#4 -112441857#1 -11273371#3 -11273911#2 -11273911#3 -127538487#0 -127538487#1 -154381214 -154381288 -187398148#0 -187398148#1 -22742007 -25376553#3 -316749677#2 -33685647#3 -4685875 -4685880#1 -4688786#0 -4688786#1 -4688786#2 -4688786#3 -4688788#0 -4688788#1 -511855927 -97133107#3 103066047#0 103066047#3 103066047#4 104765080#0 104765080#1 104765080#2 104765080#3 106863633#1 106863633#2 106863633#3 106863633#4 106863638 112441857#1 11273371#0 11273911#0 11273911#3 127538487#0 127538487#1 154381214 154381230 154381288 187398148#0 187398148#1 19410643#2 22742007 24864947#13 24864947#16 24864947#17 24864947#18 24864947#19 24864947#20 24864947#21 24864947#22 25376553#2 33685647#1 4685875 4685880#0 4688786#0 4688786#1 4688786#2 4688786#3 4688788#0 4688788#1 4791641#2 4791641#3 4791641#4 4791641#5 578582213 97133107#0"/>
    <taz id="-103066047#4" edges="-103066047#2 -103066047#3 -103066047#4 -112441857#1 -112441857#2 -112441857#3 -11273371#3 -11273911#2 -11273911#3 -127538487#0 -127538487#1 -154381214 -154381288 -187398148#0 -187398148#1 -23248778#7 -25376553#3 -316749677#2 -33685647#3 -4685875 -4685880#1 -4688786#0 -4688786#1 -4688786#2 -4688788#0 -4688788#1 -511855927 -97133107#3 103066047#0 103066047#3 103066047#4 104765080#0 104765080#1 104765080#2 104765080#3 106863633#1 106863633#2 106863633#3 106863633#4 106863638 112441857#1 112441857#2 112441857#3 11273371#0 11273911#0 11273911#3 127538487#0 127538487#1 146693475 154381214 154381230 154381288 187398148#0 187398148#1 19410643#0 19410643#2 23248778#7 24864947#13 24864947#16 24864947#17 24864947#18 24864947#19 24864947#20 24864947#21 24864947#22 25376553#2 33685647#1 4685875 4685880#0 4688786#0 4688786#1 4688786#2 4688788#0 4688788#1 4791641#2 4791641#3 4791641#4 4791641#5 578582213 97133107#0"/>
    <taz id="-105352753" edges="-105352753 -153698387#2 -172080041 -176043807#11 -188240629#1 -195091665 -315214529#12 -315214529#13 -327481193 -33177962#3 -35556702#1 -437325046#2 -437325050 -4592739#1 -58519466 -60333308#1 -60333317#0 -76212441#3 153698387#0 154043350 172080041 176043807#1 188240631 196520271 27779097#0 31112516#1 315214529#13 327481193 33177962#0 35556702#0 437325046#0 437325050 4403526#0 576351127 60333308#0 60333312#0 60333314 60333317#0 60333317#1 76212441#0"/>
    <taz id="-107747046#7" edges="-107747046#7 -147604951#1 -176031304#6 -24243245#1 -24243245#2 -25360632#2 -25360639#5 -328426220#2 -328426230#2 -4612875#3 107747046#0 176031304#0 189037368#0 24243245#0 24243245#2 25360632#0 25360639#0 328426220#0 328426230#0 4612873 66514427#0 66514452#0"/>
    <taz id="-108031933#2" edges="-108031933#2 -111833186#2 -132600840#1 -153698380#2 -153698415#4 -155186522 -158023913#6 -176273730#2 -195104960#5 -210668637 -24242892#4 -24242892#5 -24242892#8 -25945966 -292429062#3 -292429063#0 -326116286#2 -38912785 -437325055#2 -437325056#2 -4402037#0 -4402037#2 -4588211 108031933#0 111833186#0 132600840#0 153698380#0 153698402#0 153698415#0 155186522 158023913#0 169660686#1 188386313#0 210668637 236092221#0 236092221#2 24240245#0 24240246#0 24242892#0 24242892#5 24242892#6 24913267#0 24913304#0 24913304#2 292429062#0 292429063#0 342968607#0 38912785 424323348 437325055#0 437325056#0 4402037#0 4402037#1 4412886#0 4588211 68711084#0"/>
    <taz id="-109819340#3" edges="-109819340#3 -19801644#0 -19801644#3 -4613306#0 -4613306#1 -566764345 -780281639#0 -780281639#1 100405009#0 109819340#0 150178429 150178430#1 150178430#2 150178431 150190354 150478184#0 150478184#1 150478184#4 163368988#2 187103791 187103792#0 187111590#0 188044903#0 19801548#0 19801618#0 19801644#0 19801644#1 22962555#0 22962555#2 25957881#0 25957881#1 28679067#0 28679067#1 288585010 29177662#0 301241483#2 301733774#0 301733774#1 301733776 307098733#0 307098733#1 307098734#3 311690284 317013528#0 317013528#4 317013528#5 4613306#0 4613306#1 46517264#2 47016365#0 4790801 566764345 780281639#0 780281639#1 93628049#0"/>
    <taz id="-109902441#0" edges="-109902441#0 -109902441#1 -168935757#2 -168935757#3 -23755739#4 -292429056#4 -303084352#1 -320462163#3 -326116286#2 -335462874#2 -335462916 -4401967#2 -4588217#5 -4588219#1 -4588222#1 -47755711#2 -533509622#6 -85255869#2 -85255870#2 109902441#0 109902441#1 168935756#0 168935757#0 168935757#3 191556835#0 23755739#0 24913267#0 292429056#0 303084352#0 320462164#2 335462916 43348945#3 4401967#0 4402014#0 4588217#0 4588219#0 4588220#0 4588222#0 47755711#0 533509622#2 681299267#0 681299268 753316505#0 753316506 82488124#0 82488125#0 85255869#0 85255870#0"/>
    <taz id="-109902441#1" edges="-109902441#0 -109902441#1 -168935757#2 -168935757#3 -197160273#3 -23755739#4 -292429056#4 -303084352#1 -335462916 -335462921#5 -4401967#2 -4588219#1 -4588222#1 -4597325#2 -47755711#2 -533509622#6 -710761407#1 -710761407#4 -85255869#2 -85255870#2 -98399537#0 109902441#0 109902441#1 168935756#0 168935757#0 168935757#3 191556835#0 23755739#0 292429056#0 303084352#0 335462916 335462921#0 43348945#0 43348945#3 4401967#0 4588219#0 4588220#0 4588222#0 4597325#0 4597326 47755711#0 533509622#2 681299267#0 681299268 710761406#0 710761407#0 710761407#2 753316505#0 753316506 82488124#0 82488125#0 82488125#1 85255869#0 85255870#0"/>
    <taz id="-110464119" edges="-110464119 -173197451#1 -173197451#4 -173197451#6 -276701303#2 -4790825#2 -566764344 -566764345 -694626562 100405009#0 110464119 112128418#0 112128418#3 112128419#0 112128422#0 112128422#2 144014234#4 148449390#0 148449390#1 148452597#0 148452597#1 148452597#2 148452597#3 148452597#4 150394034#3 150394034#4 150394034#5 150394035#0 150478185#0 158785194#2 173197451#0 173197451#2 173197451#6 19002403#0 195400997#0 195400997#1 195401006 195401017#3 195401017#5 22962554#1 22962554#2 24913524#3 24914141#8 276701303#0 301167584#0 331114772#4 331114772#8 331114772#9 457031289 4612981#0 4613110#0 4613110#2 4790825#1 4791000#0 4791000#3 4791000#4 492609984 492609985#0 566764344 566764345 694626562 72157174#0 72678523#2 756306892 86220069#0"/>
    <taz id="-110785555#2" edges="-109902441#1 -110785555#2 -16374393#2 -168935757#2 -168935757#3 -196850606#8 -24242835 -24242838#0 -25042806#8 -303084352#1 -327462543#2 -335462921#5 -356359316#5 -375459783 -4588224#2 -4611773 -47755711#2 -505526660#2 -65040946#2 -65040958#2 -665241888#1 -67099789#3 -67099797#0 -67099797#1 -67627347 -67627353 -81113584#2 109902441#1 110785555#0 168935757#0 168935757#3 191556835#0 196850606#6 199847241#0 199847244#0 199847247#0 199847252#0 24242835 24242838#0 303084352#0 327462543#0 335462921#0 356359316#0 375459783 43348945#3 4588224#0 4588225#0 458953718 4611773 47755711#0 505526660#0 65040958#0 665241888#0 67099789#0 67099797#0 67099797#1 67627350 707100745#0 707107510#0 81113584#0 82488124#0 82488125#0"/>
    <taz id="-111251382#3" edges="-111251382#3 -131505631#1 -153692976#0 -153692976#2 -153698390#1 -168940071#4 -169717723#3 -169719829#5 -176043794 -176043807#0 -176043807#11 -237209664 -327518240#1 -32805741#2 -374734384#4 -427637455 -437325051#1 -541295974 -541295976#0 -541295976#2 -6228081 -750204886 -7917219#3 101699672 101699679#3 111251382#0 131505631#0 153692976#0 153692976#1 153698390#1 154321049#0 154321049#2 165409970 167140669#0 167140669#1 167140669#2 167140669#3 167140670#0 167140670#1 167140670#3 167140670#4 168249863 168940071#2 169717723#0 169719829#0 169953964#0 176043794 176043806#0 176043807#1 195411601#1 204032443#0 237209664 30122986#0 30719903#0 30719903#1 30719903#2 30720544#1 31112516#0 31112516#1 317401282 318915601#0 318915602#2 327518240#0 32805741#0 35269774#0 374734383#0 374734384#2 374734389#0 380240681 388702047#0 388702049#0 388702049#2 388702049#3 389705415#1 42103020#0 42103021 427637455 437325051#0 4597207#0 465376253#0 541295974 541295976#0 541295976#2 541295978#0 6227654#0 6227654#4 6227656 6227796#0 6228081 6228154#0 6228154#1 750204886 7917219#0 93584120#0 93584120#2 93584120#3 93584120#4"/>
    <taz id="-111251391#3" edges="-111251391#3 -137954786 -182620302#2 -182620302#4 -24149429#4 -340606517#3 -340606518#4 -360996659 -4615061#1 -4615066#4 -4615403#2 -4615404#0 -4615404#1 -4615407#4 -4615407#6 -552963268#2 -671026860 -671026861#3 111251391#0 111251391#4 137954786 150178892#7 150178893#0 150178893#3 150178893#4 182620302#3 188283090#0 189024466 19048563#0 19048563#2 194994996#0 194994996#2 194995004#0 24149429#0 24968370#0 295042489#0 311357732#1 340606517#0 340606517#4 340606518#2 340606538#0 360996659 38596496#0 4615034#0 4615061#0 4615066#3 4615403#0 4615404#0 4615404#1 4615407#0 4615407#5 4790838#0 4790839#0 552963268#0 671026860 94351504#3 94351504#4"/>
    <taz id="-111531489" edges="-111531489 -165333156#2 -175913914#1 -182622175#4 -283919155#3 -35556490#5 -37287200#3 -419527299#3 -4616575#0 -4616575#1 111531489 175913914#0 182622175#0 283919155#0 35556490#0 37287200#0 419527299#0 4616575#0 4616575#1 472360197#0"/>
    <taz id="-111740159#8" edges="-111740159#8 -11923627#10 -175912412#1 -37287195#2 -37287196#2 -4616576#7 -4616577#5 -4616577#7 -4616579#4 111740159#0 11923627#0 175912412#0 37287195#0 37287196#0 4616576#0 4616577#0 4616577#6 4616579#0 4616579#5 63031918#0"/>
    <taz id="-111833185#1" edges="-111833185#1 -11483007#2 -158023913#6 -15977422#0 -169999355#2 -194069450#3 -195397561#4 -195411605#0 -330840125#1 -35578576#2 -4412868 -461526153 -465376254 -66071373#3 111833185#0 114667396#0 11483007#0 144014228#0 144014228#1 144014233#0 144014233#1 144014237#0 144014237#1 153698394#1 153698394#2 158023913#0 15977422#0 165409970 165409971#2 167272512#2 167272512#4 167272512#6 169195795#8 169999355#0 188386313#0 190447768#1 194069450#0 195411594#3 195411601#1 22820560#0 22820560#1 22972195#2 22972454 24243052#0 24243052#4 24243052#5 24243092#0 243854725#4 330840125#0 340498976#1 340498982#0 340498988#0 342968607#0 35578576#1 4402228 4412868 4610476#1 461526152#0 461526153 465376243#0 465376243#1 465376256#0 492340367 688761153 83517336#0 83517336#3 93584121#0 93584121#1"/>
    <taz id="-111833186#2" edges="-111833186#2 -132600840#1 -153698380#2 -155186522 -158023913#6 -176273730#2 -24242892#4 -24242892#5 -24242892#8 -292429062#3 -292429063#0 -292429063#1 -326116286#2 -437325055#2 -437325056#2 -4402037#0 -4402037#2 -4588211 111833186#0 132600840#0 153698380#0 153698413 155186522 158023913#0 188386313#0 236092221#0 236092221#2 24240246#0 24242892#0 24242892#5 24242892#6 24243052#0 24913267#0 24913304#0 24913304#2 292429062#0 292429063#0 292429063#1 342968607#0 437325055#0 437325056#0 4402037#0 4402037#1 4588211 68711084#0"/>
    <taz id="-112128825#0" edges="-112128825#0 -112128825#1 -22036538#3 -24993933#4 -268002748#1 -369223458#0 -369223458#1 -4613298#1 -4613299#1 -713577963 100405009#0 112128418#0 112128419#0 112128422#0 112128422#2 112128825#0 112128825#1 153689810#0 19002403#0 195401017#5 232070355#0 24914109 24914141#0 24914141#8 24993933#0 26652030#0 268002748#0 288749954#0 300401898 301167584#0 309300320#0 309300321#0 331114772#4 331114772#8 331114772#9 369223458#0 369223458#1 4484427#0 4613110#0 4613110#2 4613112#0 4613298#0 4613299#0 4614989#0 4790813#0 4790822 4791000#0 4791000#3 4791000#4 713577963 756306892"/>
    <taz id="-112128825#1" edges="-102984483 -112128825#0 -112128825#1 -23294704 -24993933#4 -268002748#1 -369223457#0 -369223457#1 -369223458#0 -369223458#1 -44427221#2 -4613298#1 -4613299#1 -4613299#3 -4613299#4 -4613300#2 -4613300#8 -4613300#9 -713577963 102983787#0 102984483 109819106#0 112128825#0 112128825#1 153424828#1 153424828#2 23294704 24993933#0 268002748#0 312651884#0 312654701#3 312654705#0 312654706#0 312654706#4 369223457#0 369223457#1 369223458#0 369223458#1 369223459#0 369223460#0 369223461#0 414976603 42348713#0 44427219#1 44427221#0 4613293#1 4613295#2 4613296#0 4613297 4613298#0 4613299#0 4613299#2 4613299#4 4613300#0 4613300#3 4613300#9 713577963"/>
    <taz id="-112441857#1" edges="-103066047#2 -103066047#3 -103066047#4 -112441857#1 -112441857#2 -112441857#3 -11273371#3 -11273911#2 -11273911#3 -11929488#0 -11929488#1 -127538487#0 -127538487#1 -187398148#0 -23248778#5 -23248778#6 -23248778#7 -25376553#3 -316749677#2 -33685647#3 -4685869 -4685875 -4688786#0 -4688786#1 -4688786#2 -4688786#3 -4688786#4 -4688788#0 -4688788#1 -511855927 -758683447#2 -97133107#3 103066047#0 103066047#3 103066047#4 104765080#0 104765080#1 104765080#2 104765080#3 106863633#1 106863633#2 106863633#3 106863633#4 106863638 112441857#1 112441857#2 112441857#3 11273371#0 11273911#0 11273911#3 11929488#0 11929488#1 127538487#0 127538487#1 154381230 187398148#0 23248778#5 23248778#6 23248778#7 24864947#13 24864947#16 24864947#17 24864947#18 24864947#19 24864947#20 24864947#21 24864947#22 25376553#2 33685647#1 4685869 4685875 4685881#1 4688786#0 4688786#1 4688786#2 4688786#3 4688786#4 4688788#0 4688788#1 4791641#2 4791641#3 4791641#4 4791641#5 578582213 758683447#0 97133107#0"/>
    <taz id="-112441857#2" edges="-112441857#1 -112441857#2 -112441857#3 -11923626#2 -11929488#0 -11929488#1 -129285627#10 -129285627#5 -129285627#8 -129285627#9 -23248761#3 -23248778#2 -23248778#4 -23248778#5 -23248778#6 -23248778#7 -23430154#0 -23430154#1 -23430154#4 -316749677#2 -316749678#1 -316749679#0 -316749679#2 -35559332#3 -35559332#4 -4479174#3 -4685869 -4685875 -4685882#4 -593851922 -758683447#2 104765080#3 106863633#4 112441857#1 112441857#2 112441857#3 11923626#0 11929488#0 11929488#1 129285627#10 129285627#3 129285627#6 129285627#9 139158262#1 139158262#2 139158262#4 23248759#0 23248759#3 23248761#1 23248778#1 23248778#3 23248778#5 23248778#6 23248778#7 23430154#0 23430154#1 23430154#4 24864947#10 24864947#11 24864947#13 24864947#6 24864947#8 316749678#0 316749679#0 316749679#1 35559332#0 35559332#4 4479174#3 4685868 4685869 4685875 4685881#1 4685882#1 4791641#2 563341820 578582213 593851922 758683447#0"/>
    <taz id="-112441857#3" edges="-112441857#1 -112441857#2 -112441857#3 -11923626#2 -11929488#0 -11929488#1 -127538487#0 -129285627#10 -129285627#5 -129285627#8 -129285627#9 -187398148#0 -23248761#3 -23248778#4 -23248778#5 -23248778#6 -23248778#7 -23430154#0 -23430154#1 -23430154#4 -35559332#3 -35559332#4 -4479174#3 -4685869 -4685875 -4688786#1 -4688786#2 -4688786#3 -4688786#4 -593851922 -758683447#2 104765080#3 106863633#4 112441857#1 112441857#2 112441857#3 11923626#0 11929488#0 11929488#1 127538487#0 129285627#10 129285627#3 129285627#6 129285627#9 139158262#1 139158262#2 139158262#4 187398148#0 23248759#3 23248761#1 23248778#3 23248778#5 23248778#6 23248778#7 23430154#0 23430154#1 23430154#4 24864947#10 24864947#6 24864947#8 35559332#0 35559332#4 4479174#3 4685868 4685869 4685875 4685881#1 4688786#1 4688786#2 4688786#3 4688786#4 4791641#2 563341820 593851922 758683447#0"/>
    <taz id="-11273359#0" edges="-103066047#2 -11273359#0 -11273359#1 -11273371#3 -11273911#2 -11273911#3 -127538487#0 -127538487#1 -127538492#5 -146693079 -154381214 -154381288 -175744669#7 -182709704 -22742007 -37633352#1 -37633352#2 -4685874#1 -4685874#2 -4685876#2 -4685880#1 -4688784#1 -4688788#0 -4688788#1 103066047#0 11273359#0 11273359#1 11273371#0 11273911#0 11273911#3 127538487#0 127538487#1 127538492#5 146693079 146693475 154381214 154381288 167791953#0 167791953#1 175744669#1 182709704 19410643#0 19410643#2 22742007 37633352#0 37633352#2 389705418#0 389705418#1 4685874#0 4685874#2 4685876#0 4685880#0 4688784#0 4688788#0 4688788#1"/>
    <taz id="-11273359#1" edges="-103066047#2 -11273359#0 -11273359#1 -11273371#3 -11273911#2 -11273911#3 -127538487#0 -127538487#1 -127538487#2 -127538492#3 -127538492#4 -127538492#5 -146693079 -154381214 -154381288 -175744669#7 -182709704 -187398148#1 -22742007 -37633352#1 -37633352#2 -4685874#1 -4685874#2 -4685876#2 -4685880#1 -4688784#1 -4688788#0 -4688788#1 -563494116#2 103066047#0 11273359#0 11273359#1 11273371#0 11273911#0 11273911#3 127538487#0 127538487#1 127538487#2 127538492#2 127538492#4 127538492#5 146693079 146693475 154381214 154381288 167791953#0 167791953#1 175744669#1 182709704 187398148#1 19410643#0 19410643#2 22742007 37633352#0 37633352#2 389705418#0 389705418#1 4685874#0 4685874#2 4685876#0 4685880#0 4688784#0 4688788#0 4688788#1 563494116#0"/>
    <taz id="-11273371#3" edges="-103066047#2 -103066047#3 -11273359#0 -11273359#1 -11273371#3 -11273911#2 -11273911#3 -127538487#0 -127538487#1 -154381214 -154381288 -187398148#0 -187398148#1 -194070667#0 -194070667#1 -22742007 -4685874#1 -4685874#2 -4685880#1 -4688784#1 -4688788#0 -4688788#1 -511855927 -625747695 103066047#0 103066047#3 11273359#0 11273359#1 11273371#0 11273911#0 11273911#3 127538487#0 127538487#1 154381214 154381230 154381288 187398148#0 187398148#1 194070667#0 194070667#1 19410643#0 19410643#2 22742007 4685874#0 4685874#2 4685880#0 4688784#0 4688788#0 4688788#1 625747695"/>
    <taz id="-11273911#2" edges="-103066047#2 -103066047#3 -103066047#4 -112441857#1 -112441857#2 -112441857#3 -11273359#0 -11273359#1 -11273371#3 -11273911#2 -11273911#3 -11929488#0 -127538487#0 -127538487#1 -127538487#2 -127538492#3 -127538492#4 -127538492#5 -146693079 -154381214 -154381288 -175744669#7 -182709704 -187398148#0 -187398148#1 -23248778#7 -33685647#3 -37633352#1 -37633352#2 -4685869 -4685874#1 -4685874#2 -4685875 -4685876#2 -4685880#1 -4688784#1 -4688786#0 -4688786#1 -4688786#2 -4688786#3 -4688786#4 -4688788#0 -4688788#1 -511855927 -563494116#2 -758683447#2 103066047#0 103066047#3 103066047#4 106863633#1 106863638 112441857#1 112441857#2 112441857#3 11273359#0 11273359#1 11273371#0 11273911#0 11273911#3 11929488#0 127538487#0 127538487#1 127538487#2 127538492#2 127538492#4 127538492#5 146693079 146693475 154381214 154381230 154381288 167791953#0 167791953#1 175744669#1 182709704 187398148#0 187398148#1 19410643#0 19410643#2 23248778#7 24864947#21 24864947#22 310172809#3 310172809#5 33685647#1 37633352#0 37633352#2 389705418#0 389705418#1 4685869 4685874#0 4685874#2 4685875 4685876#0 4685880#0 4688784#0 4688786#0 4688786#1 4688786#2 4688786#3 4688786#4 4688788#0 4688788#1 563494116#0 758683447#0"/>
    <taz id="-11273911#3" edges="-103066047#2 -103066047#3 -103066047#4 -112441857#1 -11273371#3 -11273911#2 -11273911#3 -127538487#0 -127538487#1 -154381214 -154381288 -187398148#0 -187398148#1 -25376553#3 -316749677#2 -33685647#3 -4685880#1 -4688786#0 -4688786#1 -4688788#0 -4688788#1 -511855927 -97133107#3 103066047#0 103066047#3 103066047#4 104765080#0 104765080#1 104765080#2 104765080#3 106863633#1 106863633#2 106863633#3 106863633#4 106863638 112441857#1 11273371#0 11273911#0 11273911#3 127538487#0 127538487#1 146693475 154381214 154381230 154381288 187398148#0 187398148#1 19410643#0 19410643#2 24864947#13 24864947#16 24864947#17 24864947#18 24864947#19 24864947#20 24864947#21 24864947#22 25376553#2 33685647#1 4685880#0 4688786#0 4688786#1 4688788#0 4688788#1 4791641#2 4791641#3 4791641#4 4791641#5 578582213 97133107#0"/>
    <taz id="-114684413#2" edges="-114684413#2 -114684413#5 -28222110#3 -44851670#0 -44851670#3 -44851670#7 -4615783#2 -4615783#3 -4615783#4 -4615783#8 -4615784#1 -4789051#4 -4789055 -4789057 -8084132#10 -8084132#5 114684413#0 114684413#3 155533123#2 155533124#11 155533124#9 203884042#0 28222110#0 338616239#0 440078643#0 440078644#0 440078647#0 440078648#0 44851670#0 44851670#1 44851670#4 4615746#5 4615746#7 4615780#0 4615783#0 4615783#3 4615783#4 4615783#5 4615784#0 4615785 4615786#0 4685636#0 4789051#0 4789055 4789056#0 4789056#1 4789057 8084132#3 8084132#6 93628042#2 93705399#2 93705399#5"/>
    <taz id="-114684413#5" edges="-114684413#2 -114684413#5 -155190261#7 -28222110#3 -28536387#2 -44851670#0 -44851670#3 -44851670#7 -4615783#2 -4615783#3 -4615783#4 -4615783#8 -4615784#1 -4789051#4 -4789055 -4789057 -8084128#5 -8084132#10 -8084132#2 -8084132#5 114684413#0 114684413#3 154339629 155190261#4 155533123#2 155533124#1 155533124#11 155533124#3 155533124#4 155533124#5 155533124#6 155533124#7 155533124#8 155533124#9 155533125#2 167893753#0 167893753#2 167893753#3 167893757#0 167893757#1 167893757#2 167893757#3 167893757#4 167893760#0 167893760#1 167893760#2 167893760#3 167893760#4 167893762#0 167893762#2 167893762#3 167893762#4 167893762#5 167893762#6 167894827#0 167894827#1 167894827#2 167894827#3 167894827#4 167894829#0 167894829#1 167894829#2 167895771#0 167895773#0 167895773#2 167895773#3 167895773#4 167895773#5 167895780#0 167895780#1 167895780#2 171877513#2 175479660#0 203884042#0 28222110#0 28299346#0 28536387#0 288762496#0 288762497#0 29376344#0 29376344#4 29376345#0 29376345#2 29376346#1 29376346#3 338616239#0 341080390 38575179#0 440078643#0 440078644#0 440078647#0 440078648#0 44851670#0 44851670#1 44851670#4 458998067#0 4615457#0 4615465#0 4615465#2 4615465#4 4615465#6 4615746#5 4615746#7 4615780#0 4615783#0 4615783#3 4615783#4 4615783#5 4615784#0 4615785 4615786#0 4685636#0 4685638#0 4789051#0 4789055 4789057 53365275#0 53365281#0 656241856#0 8084128#0 8084132#0 8084132#3 8084132#6 86260988 93628042#11 93628042#2 93628042#4 93628042#5 93628042#6 93628042#7 93628042#8 93628042#9 93705399#2 93705399#5 93705439#2"/>
    <taz id="-11483007#2" edges="-111833185#1 -11483007#2 -158023913#6 -169999355#2 -194069450#3 -195397561#4 -330840125#1 -35578576#2 -4412868 -461526153 -465376254 -66071373#3 111833185#0 11483007#0 144014237#0 144014237#1 153698394#1 153698394#2 158023913#0 165409970 165409971#2 167272512#4 167272512#6 169195795#8 169999355#0 188386313#0 190447768#1 194069450#0 195411594#3 195411601#1 22820560#0 22820560#1 22972195#2 22972454 24243052#0 24243052#4 24243052#5 24243092#0 243854725#4 330840125#0 340498982#0 340498988#0 342968607#0 35578576#1 4402228 4412868 461526152#0 461526153 465376243#0 465376243#1 465376256#0 688761153 83517336#0 83517336#3 93584121#0 93584121#1"/>
    <taz id="-117611349#1" edges="-117611349#1 -176043799#2 -241886108#2 -247187765 -291670881#6 -291696979#3 -291696983#4 -29312187 -315214529#12 -39350082#0 -427970090 -43053691#1 -4383280#6 -4383283#0 -4383283#1 -4592757#0 -4592757#2 -4597199 -56680556#0 -56680556#2 -671403217 100113767#1 104590139#1 117611349#0 118423895 144528130#0 144528130#2 144529199#2 154315269#0 154315269#1 154315269#4 169719829#6 169953964#3 169953965#0 176043803#1 247187765 27779097#0 282760693#0 282760693#1 282760693#3 282760693#4 291670881#0 291670885#0 291670885#1 291670890#3 291670890#7 291670890#9 291670891#2 291670891#3 291670891#4 291670891#6 291670892#1 291670892#2 291686434#2 291696979#0 291696982#0 291696983#1 29312187 316975485#0 316975485#1 317401282 39350082#0 39350082#1 427970090 43053691#1 4383280#0 4383283#0 4383283#1 443401746#1 4592757#0 4592757#1 4597199 56680556#0 56680556#1"/>
    <taz id="-11845130#1" edges="-11845130#1 -159081779#1 -176043805 -181472197#2 -356359316#5 -4396109 -453379904 -4611869#2 -4611886 -9657820#2 110032714#0 11845130#0 11845184#0 11845184#3 11845212#0 159081772#0 159081772#2 159081773 159081774#0 159081779#0 176043805 181472197#0 24214089#0 24214089#2 24214089#4 328064918#0 34832961#0 356359316#0 36259516#0 36259520#0 404598738#0 4396109 4396503#0 453379904 4611869#0 4611886 475533028 475533029 48859718#2 67718316#0 710761408#0 9657820#1"/>
    <taz id="-11923625" edges="-11923625 -154381219#6 -165333156#2 -175913914#1 -175913915 -25278602#5 -25278611#3 -276457310#2 -276457310#6 -276457310#7 -37287195#2 -37287198#2 -37287199#4 -37287199#5 -37287200#3 -4616573#2 -4616575#1 -4685758#1 -4685759#2 -5011545#1 -609032131 11923625 154381219#0 175913914#0 175913915 24940950#0 24940950#2 24940950#3 25278602#0 25278611#0 276457310#0 276457310#3 276457310#7 37287195#0 37287198#0 37287199#0 37287199#5 37287200#0 4616570#0 4616573#0 4616575#1 4685758#0 4685759#0 472360197#0 5011545#0 609032131"/>
    <taz id="-11923626#2" edges="-103066047#3 -103066047#4 -112441857#1 -112441857#2 -112441857#3 -11273911#3 -11923626#2 -11929488#0 -11929488#1 -127538487#0 -127538492#0 -127538492#1 -187398148#0 -187398148#1 -23248778#6 -23248778#7 -23430154#0 -25376553#3 -33685647#3 -35559332#3 -35559332#4 -4068142 -4479174#2 -4479174#3 -4685726#3 -4685869 -4685875 -4688786#0 -4688786#1 -4688786#2 -4688786#3 -4688786#4 -4688788#0 -593851922 -758683447#2 -97133107#3 103066047#3 103066047#4 104765080#0 104765080#1 104765080#2 104765080#3 106863633#1 106863633#2 106863633#3 106863633#4 106863638 112441857#1 112441857#2 112441857#3 11273911#3 11923626#0 11929488#0 11929488#1 127538487#0 127538492#0 127538492#1 187398148#0 187398148#1 23248778#6 23248778#7 23430154#0 24864947#18 24864947#19 24864947#20 24864947#21 24864947#22 25376553#2 310172795#0 310172795#9 310172802#0 310172808#0 310172808#2 318282842#0 33685647#1 35559332#0 35559332#4 4068142 4479174#0 4479174#3 4685726#2 4685868 4685869 4685875 4688786#0 4688786#1 4688786#2 4688786#3 4688786#4 4688788#0 4791641#2 4791641#3 4791641#4 4791641#5 563341820 593851922 758683447#0 97133107#0"/>
    <taz id="-11923627#10" edges="-111740159#8 -11923627#10 -37287195#2 -37287196#2 -4616577#7 -4616579#4 -593851923#5 -99963094#2 102773708#0 10596872#2 111740159#0 11923627#0 183930096#0 25162681#0 25162681#3 37287190#0 37287191#0 37287195#0 37287196#0 4616572#0 4616577#6 4616579#0 4616579#5 48954018 593851923#0 63031918#0 93861042#2 99963094#2"/>
    <taz id="-11929488#0" edges="-112441857#1 -112441857#2 -112441857#3 -11929488#0 -11929488#1 -129285627#10 -129285627#2 -129285627#5 -129285627#8 -129285627#9 -168829866#0 -187399685#2 -23248761#3 -23248778#4 -23248778#5 -23248778#6 -23248778#7 -23430154#0 -23430154#1 -23430154#4 -316749677#2 -316749678#1 -316749679#0 -316749679#2 -4685869 -4685875 -4685882#4 -758683447#2 106863633#4 112441857#1 112441857#2 112441857#3 11929488#0 11929488#1 129285627#1 129285627#10 129285627#3 129285627#6 129285627#9 139158262#1 139158262#2 139158262#4 139158262#6 168829866#0 187399685#1 23248759#3 23248761#1 23248778#3 23248778#5 23248778#6 23248778#7 23430154#0 23430154#1 23430154#4 24864947#10 24864947#11 24864947#13 24864947#5 24864947#6 24864947#8 316749678#0 316749679#0 316749679#1 4685869 4685875 4685881#1 4685882#1 578582213 758683447#0"/>
    <taz id="-11929488#1" edges="-103066047#2 -103066047#3 -103066047#4 -112441857#1 -112441857#2 -112441857#3 -11273911#3 -11923626#2 -11929488#0 -11929488#1 -127538487#0 -129285627#0 -129285627#10 -129285627#2 -129285627#5 -129285627#8 -129285627#9 -168829866#0 -187398148#0 -187399685#2 -187399686#0 -187399686#3 -187399686#4 -187399686#5 -23248761#3 -23248770#1 -23248778#2 -23248778#4 -23248778#5 -23248778#6 -23248778#7 -23430154#0 -23430154#1 -23430154#4 -25376552#4 -25376552#5 -25376553#3 -316749677#2 -316749678#1 -316749679#0 -316749679#2 -33685647#3 -35559332#3 -35559332#4 -4479174#3 -4685869 -4685872#1 -4685875 -4685882#4 -4685892#0 -4688786#0 -4688786#1 -4688786#2 -4688786#3 -4688786#4 -511855927 -593851922 -758683447#2 -97133107#3 103066047#0 103066047#3 103066047#4 104765080#0 104765080#1 104765080#2 104765080#3 106863633#1 106863633#2 106863633#3 106863633#4 106863638 112441857#1 112441857#2 112441857#3 11273911#3 11923626#0 11929488#0 11929488#1 127538487#0 129285627#0 129285627#1 129285627#10 129285627#3 129285627#6 129285627#9 139158262#1 139158262#2 139158262#4 139158262#6 139158262#7 154381230 168829866#0 183930096#1 187398148#0 187399685#1 187399686#0 187399686#1 187399686#4 187399686#5 23248759#0 23248759#3 23248761#1 23248770#1 23248778#1 23248778#3 23248778#5 23248778#6 23248778#7 23430154#0 23430154#1 23430154#4 24864947#0 24864947#10 24864947#11 24864947#13 24864947#18 24864947#19 24864947#2 24864947#20 24864947#21 24864947#22 24864947#3 24864947#5 24864947#6 24864947#8 25376552#0 25376552#5 25376553#2 316749678#0 316749679#0 316749679#1 33685647#1 35559332#0 35559332#4 4479174#3 4685868 4685869 4685872#0 4685875 4685881#1 4685882#1 4685892#0 4688786#0 4688786#1 4688786#2 4688786#3 4688786#4 4791641#2 4791641#3 4791641#4 4791641#5 563341820 578582213 593851922 758683447#0 97133107#0"/>
    <taz id="-120948266" edges="-120948266 -4614987#4 120948266 147646826 150178892#7 150178893#0 150178893#3 150178893#4 188283090#0 19048563#0 19048563#2 194994996#0 194994996#2 194995004#0 24968370#0 295042489#0 340606538#0 38596496#0 4614987#0 4615034#0 4782523#0 4790838#0 94351504#3 94351504#4"/>