<?xml version="1.0" encoding="UTF-8"?>

<configuration xmlns:xsi="http://www.w3.org/2001/XMLSchema-instance" xsi:noNamespaceSchemaLocation="http://sumo.dlr.de/xsd/polyconvertConfiguration.xsd">

    <input>
        <osm-files value="osm/mitte_net.osm.xml"/>
    </input>

    <output>
        <output-file value="shapes.xml"/>
        <proj.plain-geo value="true"/>
    </output>

    <report>
        <verbose value="true"/>
    </report>

</configuration>
