<routes xmlns:xsi="http://www.w3.org/2001/XMLSchema-instance" xsi:noNamespaceSchemaLocation="http://sumo.dlr.de/xsd/routes_file.xsd">
    <trip id="1000019_1000003_813_1" depart="134938" from="-4588215#5" to="192298337#0" type="small_passenger_gasoline"><param key="taz_id_start" value="110110311"/><param key="taz_id_end" value="110311212"/></trip>
    <trip id="1000019_1000003_813_0" depart="135131" from="-4588215#5" to="192298337#0" type="small_passenger_gasoline"><param key="taz_id_start" value="110110311"/><param key="taz_id_end" value="110311212"/></trip>
    <trip id="1000005_1000001_817_0" depart="135225" from="320462164#2" to="340716730#1" type="medium_passenger_gasoline"><param key="taz_id_start" value="110110312"/><param key="taz_id_end" value="110311212"/></trip>
    <trip id="1000005_1000001_817_1" depart="135489" from="320462164#2" to="340716730#1" type="medium_passenger_gasoline"><param key="taz_id_start" value="110110312"/><param key="taz_id_end" value="110311212"/></trip>
    <trip id="1000005_1000001_850_1" depart="137105" from="340716730#1" to="320462164#2" type="medium_passenger_gasoline"><param key="taz_id_start" value="110311212"/><param key="taz_id_end" value="110110312"/></trip>
    <trip id="1000005_1000001_850_0" depart="137205" from="340716730#1" to="320462164#2" type="medium_passenger_gasoline"><param key="taz_id_start" value="110311212"/><param key="taz_id_end" value="110110312"/></trip>
    <trip id="1000019_1000003_850_0" depart="137351" from="192298337#0" to="-4588215#5" type="small_passenger_gasoline"><param key="taz_id_start" value="110311212"/><param key="taz_id_end" value="110110311"/></trip>
    <trip id="1000019_1000003_850_1" depart="137466" from="192298337#0" to="-4588215#5" type="small_passenger_gasoline"><param key="taz_id_start" value="110311212"/><param key="taz_id_end" value="110110311"/></trip>
</routes>
