<routes xmlns:xsi="http://www.w3.org/2001/XMLSchema-instance" xsi:noNamespaceSchemaLocation="http://sumo.dlr.de/xsd/routes_file.xsd">
    <trip id="3382271_2351426_270_0" depart="102232" fromTaz="53486569" toTaz="913241630" type="passenger"><param key="taz_id_start" value="110913214"/><param key="taz_id_end" value="110912213"/></trip>
    <trip id="3382271_2351426_270_1" depart="103044" fromTaz="53486569" toTaz="913241630" type="passenger"><param key="taz_id_start" value="110913214"/><param key="taz_id_end" value="110912213"/></trip>
    <trip id="2666642_1948692_278_1" depart="103104" fromTaz="53485367" toTaz="-53475391" type="passenger"><param key="taz_id_start" value="110605136"/><param key="taz_id_end" value="110705418"/></trip>
    <trip id="3008614_2141148_279_1" depart="103214" fromTaz="53482642" toTaz="923656900" type="passenger"><param key="taz_id_start" value="110706832"/><param key="taz_id_end" value="110705815"/></trip>
    <trip id="1154266_1049495_286_0" depart="103231" fromTaz="779067782" toTaz="-799586899" type="passenger"><param key="taz_id_start" value="110100715"/><param key="taz_id_end" value="110100121"/></trip>
    <trip id="3008614_2141148_279_0" depart="103253" fromTaz="53482642" toTaz="923656900" type="passenger"><param key="taz_id_start" value="110706832"/><param key="taz_id_end" value="110705815"/></trip>
    <trip id="4289245_2811546_287_1" depart="103321" fromTaz="53464833" toTaz="53477425" type="passenger"><param key="taz_id_start" value="111208615"/><param key="taz_id_end" value="110404421"/></trip>
    <trip id="2307583_1757176_287_0" depart="103345" fromTaz="53465763" toTaz="551731735" type="passenger"><param key="taz_id_start" value="110502723"/><param key="taz_id_end" value="110502811"/></trip>
    <trip id="2666642_1948692_278_0" depart="103357" fromTaz="53485367" toTaz="-53475391" type="passenger"><param key="taz_id_start" value="110605136"/><param key="taz_id_end" value="110705418"/></trip>
    <trip id="2307583_1757176_287_1" depart="103618" fromTaz="53465763" toTaz="551731735" type="passenger"><param key="taz_id_start" value="110502723"/><param key="taz_id_end" value="110502811"/></trip>
    <trip id="1154266_1049495_286_1" depart="103644" fromTaz="779067782" toTaz="-799586899" type="passenger"><param key="taz_id_start" value="110100715"/><param key="taz_id_end" value="110100121"/></trip>
    <trip id="4289245_2811546_287_0" depart="103787" fromTaz="53464833" toTaz="53477425" type="passenger"><param key="taz_id_start" value="111208615"/><param key="taz_id_end" value="110404421"/></trip>
    <trip id="1755551_1407026_298_1" depart="104070" fromTaz="53637410" toTaz="53498027" type="passenger"><param key="taz_id_start" value="110316024"/><param key="taz_id_end" value="110315332"/></trip>
    <trip id="2934919_2082130_303_0" depart="104414" fromTaz="-53492325" toTaz="53490433" type="passenger"><param key="taz_id_start" value="110707212"/><param key="taz_id_end" value="110606732"/></trip>
    <trip id="1755551_1407026_298_0" depart="104567" fromTaz="53637410" toTaz="53498027" type="passenger"><param key="taz_id_start" value="110316024"/><param key="taz_id_end" value="110315332"/></trip>
    <trip id="3118135_2198360_309_1" depart="104579" fromTaz="53483587" toTaz="53472386" type="passenger"><param key="taz_id_start" value="110808012"/><param key="taz_id_end" value="110705612"/></trip>
    <trip id="2934919_2082130_303_1" depart="104751" fromTaz="-53492325" toTaz="53490433" type="passenger"><param key="taz_id_start" value="110707212"/><param key="taz_id_end" value="110606732"/></trip>
    <trip id="3909853_2613936_315_1" depart="104996" fromTaz="53511440" toTaz="53656319" type="passenger"><param key="taz_id_start" value="111117522"/><param key="taz_id_end" value="111018211"/></trip>
    <trip id="2527506_1873579_316_1" depart="105158" fromTaz="53486224" toTaz="-821535804" type="passenger"><param key="taz_id_start" value="110606644"/><param key="taz_id_end" value="110606221"/></trip>
    <trip id="3118135_2198360_309_0" depart="105177" fromTaz="53483587" toTaz="53472386" type="passenger"><param key="taz_id_start" value="110808012"/><param key="taz_id_end" value="110705612"/></trip>
    <trip id="2825610_2031267_320_0" depart="105299" fromTaz="845738790" toTaz="53510141" type="passenger"><param key="taz_id_start" value="110707031"/><param key="taz_id_end" value="111019412"/></trip>
    <trip id="3149071_2207563_316_0" depart="105308" fromTaz="-53481004" toTaz="53486995" type="passenger"><param key="taz_id_start" value="110807821"/><param key="taz_id_end" value="110808031"/></trip>
    <trip id="2825610_2031267_320_1" depart="105490" fromTaz="845738790" toTaz="53510141" type="passenger"><param key="taz_id_start" value="110707031"/><param key="taz_id_end" value="111019412"/></trip>
    <trip id="3909853_2613936_315_0" depart="105540" fromTaz="53511440" toTaz="53656319" type="passenger"><param key="taz_id_start" value="111117522"/><param key="taz_id_end" value="111018211"/></trip>
    <trip id="3546483_2429130_326_1" depart="105541" fromTaz="-53488165" toTaz="53609856" type="passenger"><param key="taz_id_start" value="110912312"/><param key="taz_id_end" value="110315311"/></trip>
    <trip id="2063422_1599498_329_1" depart="105707" fromTaz="53474195" toTaz="53491817" type="passenger"><param key="taz_id_start" value="110404011"/><param key="taz_id_end" value="110604913"/></trip>
    <trip id="2063422_1599498_329_0" depart="105794" fromTaz="53474195" toTaz="53491817" type="passenger"><param key="taz_id_start" value="110404011"/><param key="taz_id_end" value="110604913"/></trip>
    <trip id="2527506_1873579_316_0" depart="105801" fromTaz="53486224" toTaz="-821535804" type="passenger"><param key="taz_id_start" value="110606644"/><param key="taz_id_end" value="110606221"/></trip>
    <trip id="3149071_2207563_316_1" depart="105807" fromTaz="-53481004" toTaz="53486995" type="passenger"><param key="taz_id_start" value="110807821"/><param key="taz_id_end" value="110808031"/></trip>
    <trip id="3365247_2347170_326_1" depart="105846" fromTaz="-53480866" toTaz="-53478152" type="passenger"><param key="taz_id_start" value="110912022"/><param key="taz_id_end" value="110404612"/></trip>
    <trip id="3985538_2648673_332_0" depart="105935" fromTaz="-53509357" toTaz="75077794" type="passenger"><param key="taz_id_start" value="111117312"/><param key="taz_id_end" value="111117811"/></trip>
    <trip id="3985538_2648673_332_1" depart="105981" fromTaz="-53509357" toTaz="75077794" type="passenger"><param key="taz_id_start" value="111117312"/><param key="taz_id_end" value="111117811"/></trip>
    <trip id="1847460_1479751_334_0" depart="106020" fromTaz="53497829" toTaz="-53503246" type="passenger"><param key="taz_id_start" value="110315312"/><param key="taz_id_end" value="110316032"/></trip>
    <trip id="2129519_1643092_337_0" depart="106306" fromTaz="53470723" toTaz="53494096" type="passenger"><param key="taz_id_start" value="110402211"/><param key="taz_id_end" value="110808336"/></trip>
    <trip id="3365247_2347170_326_0" depart="106337" fromTaz="-53480866" toTaz="-53478152" type="passenger"><param key="taz_id_start" value="110912022"/><param key="taz_id_end" value="110404612"/></trip>
    <trip id="3546483_2429130_326_0" depart="106353" fromTaz="-53488165" toTaz="53609856" type="passenger"><param key="taz_id_start" value="110912312"/><param key="taz_id_end" value="110315311"/></trip>
    <trip id="2129519_1643092_337_1" depart="106383" fromTaz="53470723" toTaz="53494096" type="passenger"><param key="taz_id_start" value="110402211"/><param key="taz_id_end" value="110808336"/></trip>
    <trip id="2543846_1879001_338_1" depart="106387" fromTaz="53488368" toTaz="842171031" type="passenger"><param key="taz_id_start" value="110604922"/><param key="taz_id_end" value="110606221"/></trip>
    <trip id="1243979_1110704_341_1" depart="106464" fromTaz="53502642" toTaz="-53505062" type="passenger"><param key="taz_id_start" value="110100614"/><param key="taz_id_end" value="110310923"/></trip>
    <trip id="1767088_1412795_339_0" depart="106513" fromTaz="-53502985" toTaz="53482554" type="passenger_restricted"><param key="taz_id_start" value="110316121"/><param key="taz_id_end" value="110706921"/></trip>
    <trip id="1847460_1479751_334_1" depart="106715" fromTaz="53497829" toTaz="-53503246" type="passenger"><param key="taz_id_start" value="110315312"/><param key="taz_id_end" value="110316032"/></trip>
    <trip id="1243979_1110704_341_0" depart="106735" fromTaz="53502642" toTaz="-53505062" type="passenger"><param key="taz_id_start" value="110100614"/><param key="taz_id_end" value="110310923"/></trip>
    <trip id="1437311_1222482_345_1" depart="106746" fromTaz="-53475888" toTaz="53482156" type="passenger"><param key="taz_id_start" value="110201611"/><param key="taz_id_end" value="110706824"/></trip>
    <trip id="2543846_1879001_338_0" depart="106799" fromTaz="53488368" toTaz="842171031" type="passenger"><param key="taz_id_start" value="110604922"/><param key="taz_id_end" value="110606221"/></trip>
    <trip id="3193242_2223915_346_1" depart="106801" fromTaz="-53476573" toTaz="53476818" type="passenger"><param key="taz_id_start" value="110807614"/><param key="taz_id_end" value="111114611"/></trip>
    <trip id="1767088_1412795_339_1" depart="106822" fromTaz="-53502985" toTaz="53482554" type="passenger_restricted"><param key="taz_id_start" value="110316121"/><param key="taz_id_end" value="110706921"/></trip>
    <trip id="3889876_2607277_342_1" depart="106836" fromTaz="-53474180" toTaz="53494844" type="passenger"><param key="taz_id_start" value="111114732"/><param key="taz_id_end" value="110912711"/></trip>
    <trip id="3193242_2223915_346_0" depart="106870" fromTaz="-53476573" toTaz="53476818" type="passenger"><param key="taz_id_start" value="110807614"/><param key="taz_id_end" value="111114611"/></trip>
    <trip id="3675540_2493270_349_0" depart="106911" fromTaz="53504670" toTaz="857963223" type="passenger"><param key="taz_id_start" value="111019111"/><param key="taz_id_end" value="111115012"/></trip>
    <trip id="3675540_2493270_349_1" depart="106963" fromTaz="53504670" toTaz="857963223" type="passenger"><param key="taz_id_start" value="111019111"/><param key="taz_id_end" value="111115012"/></trip>
    <trip id="3985538_2648673_350_0" depart="107015" fromTaz="75077794" toTaz="-53509357" type="passenger"><param key="taz_id_start" value="111117811"/><param key="taz_id_end" value="111117312"/></trip>
    <trip id="2527506_1873579_345_1" depart="107076" fromTaz="-821535804" toTaz="-821582217" type="passenger"><param key="taz_id_start" value="110606221"/><param key="taz_id_end" value="110705413"/></trip>
    <trip id="3985538_2648673_350_1" depart="107082" fromTaz="75077794" toTaz="-53509357" type="passenger"><param key="taz_id_start" value="111117811"/><param key="taz_id_end" value="111117312"/></trip>
    <trip id="3889876_2607277_342_0" depart="107131" fromTaz="-53474180" toTaz="53494844" type="passenger"><param key="taz_id_start" value="111114732"/><param key="taz_id_end" value="110912711"/></trip>
    <trip id="1437311_1222482_345_0" depart="107193" fromTaz="-53475888" toTaz="53482156" type="passenger"><param key="taz_id_start" value="110201611"/><param key="taz_id_end" value="110706824"/></trip>
    <trip id="3408221_2359396_347_1" depart="107252" fromTaz="53494205" toTaz="901806613" type="passenger"><param key="taz_id_start" value="110912622"/><param key="taz_id_end" value="110211616"/></trip>
    <trip id="4042256_2685730_354_0" depart="107301" fromTaz="53656842" toTaz="572712850" type="passenger"><param key="taz_id_start" value="111114723"/><param key="taz_id_end" value="111115112"/></trip>
    <trip id="1665405_1364791_356_1" depart="107335" fromTaz="53502820" toTaz="-53501629" type="passenger"><param key="taz_id_start" value="110316144"/><param key="taz_id_end" value="111208512"/></trip>
    <trip id="1656437_1361802_356_0" depart="107376" fromTaz="-77274860" toTaz="-53499563" type="passenger"><param key="taz_id_start" value="110316023"/><param key="taz_id_end" value="110311014"/></trip>
    <trip id="1656437_1361802_356_1" depart="107385" fromTaz="-77274860" toTaz="-53499563" type="passenger"><param key="taz_id_start" value="110316023"/><param key="taz_id_end" value="110311014"/></trip>
    <trip id="3549054_2431701_355_0" depart="107397" fromTaz="53485970" toTaz="53484884" type="passenger"><param key="taz_id_start" value="110912422"/><param key="taz_id_end" value="110912215"/></trip>
    <trip id="1063819_1013910_349_0" depart="107406" fromTaz="779074592" toTaz="-53478633" type="passenger"><param key="taz_id_start" value="110109911"/><param key="taz_id_end" value="110807811"/></trip>
    <trip id="3408221_2359396_347_0" depart="107408" fromTaz="53494205" toTaz="901806613" type="passenger"><param key="taz_id_start" value="110912622"/><param key="taz_id_end" value="110211616"/></trip>
    <trip id="2170436_1684011_357_0" depart="107469" fromTaz="572710895" toTaz="717490045" type="passenger"><param key="taz_id_start" value="110404011"/><param key="taz_id_end" value="110404612"/></trip>
    <trip id="4042256_2685730_354_1" depart="107491" fromTaz="53656842" toTaz="572712850" type="passenger"><param key="taz_id_start" value="111114723"/><param key="taz_id_end" value="111115112"/></trip>
    <trip id="2527506_1873579_345_0" depart="107541" fromTaz="-821535804" toTaz="-821582217" type="passenger"><param key="taz_id_start" value="110606221"/><param key="taz_id_end" value="110705413"/></trip>
    <trip id="1063819_1013910_349_1" depart="107584" fromTaz="779074592" toTaz="-53478633" type="passenger"><param key="taz_id_start" value="110109911"/><param key="taz_id_end" value="110807811"/></trip>
    <trip id="3743774_2523076_356_1" depart="107661" fromTaz="-565017166" toTaz="53473974" type="passenger"><param key="taz_id_start" value="111018811"/><param key="taz_id_end" value="111018811"/></trip>
    <trip id="1161366_1053045_355_0" depart="107690" fromTaz="901439858" toTaz="821623790" type="passenger"><param key="taz_id_start" value="110100811"/><param key="taz_id_end" value="110110111"/></trip>
    <trip id="1161366_1053045_355_1" depart="107692" fromTaz="901439858" toTaz="821623790" type="passenger"><param key="taz_id_start" value="110100811"/><param key="taz_id_end" value="110110111"/></trip>
    <trip id="3992445_2652127_361_0" depart="107699" fromTaz="53510932" toTaz="53466816" type="passenger_restricted"><param key="taz_id_start" value="111117522"/><param key="taz_id_end" value="110101115"/></trip>
    <trip id="2499380_1864204_354_0" depart="107700" fromTaz="53623268" toTaz="53488213" type="passenger"><param key="taz_id_start" value="110605126"/><param key="taz_id_end" value="110605036"/></trip>
    <trip id="2307583_1757176_360_0" depart="107725" fromTaz="551731735" toTaz="53465763" type="passenger"><param key="taz_id_start" value="110502811"/><param key="taz_id_end" value="110502723"/></trip>
    <trip id="2492172_1861801_354_1" depart="107731" fromTaz="53488526" toTaz="544603395" type="passenger"><param key="taz_id_start" value="110604922"/><param key="taz_id_end" value="110606434"/></trip>
    <trip id="2543846_1879001_355_0" depart="107819" fromTaz="842171031" toTaz="53488368" type="passenger"><param key="taz_id_start" value="110606221"/><param key="taz_id_end" value="110604922"/></trip>
    <trip id="2170436_1684011_357_1" depart="107824" fromTaz="572710895" toTaz="717490045" type="passenger"><param key="taz_id_start" value="110404011"/><param key="taz_id_end" value="110404612"/></trip>
    <trip id="1760074_1409288_356_0" depart="107886" fromTaz="572705705" toTaz="-53502354" type="passenger"><param key="taz_id_start" value="110316011"/><param key="taz_id_end" value="110100614"/></trip>
    <trip id="3382271_2351426_365_0" depart="107932" fromTaz="913241630" toTaz="53486569" type="passenger"><param key="taz_id_start" value="110912213"/><param key="taz_id_end" value="110913214"/></trip>
    <trip id="2499380_1864204_354_1" depart="107953" fromTaz="53623268" toTaz="53488213" type="passenger"><param key="taz_id_start" value="110605126"/><param key="taz_id_end" value="110605036"/></trip>
    <trip id="2543846_1879001_355_1" depart="107957" fromTaz="842171031" toTaz="53488368" type="passenger"><param key="taz_id_start" value="110606221"/><param key="taz_id_end" value="110604922"/></trip>
    <trip id="2492172_1861801_354_0" depart="107981" fromTaz="53488526" toTaz="544603395" type="passenger"><param key="taz_id_start" value="110604922"/><param key="taz_id_end" value="110606434"/></trip>
    <trip id="3639288_2481186_365_1" depart="108026" fromTaz="-53509274" toTaz="717638577" type="passenger"><param key="taz_id_start" value="111018122"/><param key="taz_id_end" value="111114521"/></trip>
    <trip id="2579425_1896790_364_1" depart="108045" fromTaz="53481083" toTaz="53601583" type="passenger"><param key="taz_id_start" value="110606222"/><param key="taz_id_end" value="110402332"/></trip>
    <trip id="2453126_1851516_361_0" depart="108091" fromTaz="53484451" toTaz="53480751" type="passenger"><param key="taz_id_start" value="110605025"/><param key="taz_id_end" value="110914413"/></trip>
    <trip id="1254386_1121111_359_1" depart="108112" fromTaz="779105827" toTaz="-53499359" type="passenger"><param key="taz_id_start" value="110100712"/><param key="taz_id_end" value="110100815"/></trip>
    <trip id="1760074_1409288_356_1" depart="108114" fromTaz="572705705" toTaz="-53502354" type="passenger"><param key="taz_id_start" value="110316011"/><param key="taz_id_end" value="110100614"/></trip>
    <trip id="3549054_2431701_355_1" depart="108117" fromTaz="53485970" toTaz="53484884" type="passenger"><param key="taz_id_start" value="110912422"/><param key="taz_id_end" value="110912215"/></trip>
    <trip id="2453126_1851516_361_1" depart="108121" fromTaz="53484451" toTaz="53480751" type="passenger"><param key="taz_id_start" value="110605025"/><param key="taz_id_end" value="110914413"/></trip>
    <trip id="3875847_2602601_359_0" depart="108157" fromTaz="53476630" toTaz="53474032" type="passenger"><param key="taz_id_start" value="111114525"/><param key="taz_id_end" value="111114734"/></trip>
    <trip id="3992445_2652127_361_1" depart="108161" fromTaz="53510932" toTaz="53466816" type="passenger_restricted"><param key="taz_id_start" value="111117522"/><param key="taz_id_end" value="110101115"/></trip>
    <trip id="2579425_1896790_364_0" depart="108162" fromTaz="53481083" toTaz="53601583" type="passenger"><param key="taz_id_start" value="110606222"/><param key="taz_id_end" value="110402332"/></trip>
    <trip id="3743774_2523076_356_0" depart="108183" fromTaz="-565017166" toTaz="53473974" type="passenger"><param key="taz_id_start" value="111018811"/><param key="taz_id_end" value="111018811"/></trip>
    <trip id="1665405_1364791_356_0" depart="108208" fromTaz="53502820" toTaz="-53501629" type="passenger"><param key="taz_id_start" value="110316144"/><param key="taz_id_end" value="111208512"/></trip>
    <trip id="3875847_2602601_359_1" depart="108258" fromTaz="53476630" toTaz="53474032" type="passenger"><param key="taz_id_start" value="111114525"/><param key="taz_id_end" value="111114734"/></trip>
    <trip id="1906220_1538513_372_1" depart="108280" fromTaz="53517780" toTaz="53520213" type="passenger"><param key="taz_id_start" value="110317013"/><param key="taz_id_end" value="110317115"/></trip>
    <trip id="2307583_1757176_360_1" depart="108318" fromTaz="551731735" toTaz="53465763" type="passenger"><param key="taz_id_start" value="110502811"/><param key="taz_id_end" value="110502723"/></trip>
    <trip id="1736592_1397547_368_1" depart="108329" fromTaz="-53623096" toTaz="53505956" type="passenger"><param key="taz_id_start" value="110315421"/><param key="taz_id_end" value="110310825"/></trip>
    <trip id="1180715_1062719_366_1" depart="108354" fromTaz="53465905" toTaz="792461040" type="passenger"><param key="taz_id_start" value="110101111"/><param key="taz_id_end" value="111208615"/></trip>
    <trip id="1254386_1121111_359_0" depart="108382" fromTaz="779105827" toTaz="-53499359" type="passenger"><param key="taz_id_start" value="110100712"/><param key="taz_id_end" value="110100815"/></trip>
    <trip id="3639288_2481186_365_0" depart="108383" fromTaz="-53509274" toTaz="717638577" type="passenger"><param key="taz_id_start" value="111018122"/><param key="taz_id_end" value="111114521"/></trip>
    <trip id="1736592_1397547_368_0" depart="108503" fromTaz="-53623096" toTaz="53505956" type="passenger"><param key="taz_id_start" value="110315421"/><param key="taz_id_end" value="110310825"/></trip>
    <trip id="1180715_1062719_366_0" depart="108537" fromTaz="53465905" toTaz="792461040" type="passenger"><param key="taz_id_start" value="110101111"/><param key="taz_id_end" value="111208615"/></trip>
    <trip id="3382271_2351426_365_1" depart="108565" fromTaz="913241630" toTaz="53486569" type="passenger"><param key="taz_id_start" value="110912213"/><param key="taz_id_end" value="110913214"/></trip>
    <trip id="3640933_2481735_372_0" depart="108592" fromTaz="-53509212" toTaz="53498918" type="passenger"><param key="taz_id_start" value="111018123"/><param key="taz_id_end" value="110315713"/></trip>
    <trip id="1906220_1538513_372_0" depart="108673" fromTaz="53517780" toTaz="53520213" type="passenger"><param key="taz_id_start" value="110317013"/><param key="taz_id_end" value="110317115"/></trip>
    <trip id="2902523_2065932_380_0" depart="108821" fromTaz="53481326" toTaz="-821623795" type="passenger"><param key="taz_id_start" value="110706821"/><param key="taz_id_end" value="110110214"/></trip>
    <trip id="2923337_2076339_374_1" depart="108872" fromTaz="-53488621" toTaz="53492296" type="passenger"><param key="taz_id_start" value="110707031"/><param key="taz_id_end" value="110808122"/></trip>
    <trip id="2902523_2065932_380_1" depart="108997" fromTaz="53481326" toTaz="-821623795" type="passenger"><param key="taz_id_start" value="110706821"/><param key="taz_id_end" value="110110214"/></trip>
    <trip id="3640933_2481735_372_1" depart="109035" fromTaz="-53509212" toTaz="53498918" type="passenger"><param key="taz_id_start" value="111018123"/><param key="taz_id_end" value="110315713"/></trip>
    <trip id="3966468_2639138_385_0" depart="109129" fromTaz="53504897" toTaz="-592189758" type="passenger"><param key="taz_id_start" value="111114923"/><param key="taz_id_end" value="111114611"/></trip>
    <trip id="1736592_1397547_385_1" depart="109174" fromTaz="53505956" toTaz="-53623096" type="passenger"><param key="taz_id_start" value="110310825"/><param key="taz_id_end" value="110315421"/></trip>
    <trip id="2655065_1937114_386_1" depart="109210" fromTaz="53493667" toTaz="821512800" type="passenger"><param key="taz_id_start" value="110604931"/><param key="taz_id_end" value="110404013"/></trip>
    <trip id="4281079_2803380_385_1" depart="109212" fromTaz="53501640" toTaz="-821582217" type="passenger"><param key="taz_id_start" value="111208522"/><param key="taz_id_end" value="110705413"/></trip>
    <trip id="4166329_2749557_380_0" depart="109219" fromTaz="53464433" toTaz="53473531" type="passenger"><param key="taz_id_start" value="111209012"/><param key="taz_id_end" value="110404321"/></trip>
    <trip id="2923337_2076339_374_0" depart="109286" fromTaz="-53488621" toTaz="53492296" type="passenger"><param key="taz_id_start" value="110707031"/><param key="taz_id_end" value="110808122"/></trip>
    <trip id="3966468_2639138_385_1" depart="109362" fromTaz="53504897" toTaz="-592189758" type="passenger"><param key="taz_id_start" value="111114923"/><param key="taz_id_end" value="111114611"/></trip>
    <trip id="2395871_1806735_385_0" depart="109375" fromTaz="53467197" toTaz="-53471673" type="passenger"><param key="taz_id_start" value="110502744"/><param key="taz_id_end" value="110402532"/></trip>
    <trip id="2527391_1873541_384_1" depart="109378" fromTaz="-53486228" toTaz="-836145069" type="passenger"><param key="taz_id_start" value="110606644"/><param key="taz_id_end" value="110605032"/></trip>
    <trip id="2655065_1937114_386_0" depart="109423" fromTaz="53493667" toTaz="821512800" type="passenger"><param key="taz_id_start" value="110604931"/><param key="taz_id_end" value="110404013"/></trip>
    <trip id="2499380_1864204_390_1" depart="109446" fromTaz="53488213" toTaz="53623268" type="passenger"><param key="taz_id_start" value="110605036"/><param key="taz_id_end" value="110605126"/></trip>
    <trip id="1261858_1128583_391_0" depart="109449" fromTaz="843728857" toTaz="53499613" type="passenger"><param key="taz_id_start" value="110100814"/><param key="taz_id_end" value="110311123"/></trip>
    <trip id="3118135_2198360_385_1" depart="109461" fromTaz="53472386" toTaz="53483587" type="passenger"><param key="taz_id_start" value="110705612"/><param key="taz_id_end" value="110808012"/></trip>
    <trip id="2671245_1953295_388_1" depart="109490" fromTaz="53490672" toTaz="53490469" type="passenger"><param key="taz_id_start" value="110605232"/><param key="taz_id_end" value="110604913"/></trip>
    <trip id="1736592_1397547_385_0" depart="109523" fromTaz="53505956" toTaz="-53623096" type="passenger"><param key="taz_id_start" value="110310825"/><param key="taz_id_end" value="110315421"/></trip>
    <trip id="4166329_2749557_380_1" depart="109541" fromTaz="53464433" toTaz="53473531" type="passenger"><param key="taz_id_start" value="111209012"/><param key="taz_id_end" value="110404321"/></trip>
    <trip id="2389690_1800554_389_1" depart="109560" fromTaz="53466193" toTaz="-53468325" type="passenger"><param key="taz_id_start" value="110502731"/><param key="taz_id_end" value="110503611"/></trip>
    <trip id="4281079_2803380_385_0" depart="109601" fromTaz="53501640" toTaz="-821582217" type="passenger"><param key="taz_id_start" value="111208522"/><param key="taz_id_end" value="110705413"/></trip>
    <trip id="4195828_2759926_391_0" depart="109620" fromTaz="835789461" toTaz="-773925199" type="passenger"><param key="taz_id_start" value="111208513"/><param key="taz_id_end" value="110110013"/></trip>
    <trip id="3419838_2363268_384_0" depart="109628" fromTaz="-53486207" toTaz="-53505308" type="passenger"><param key="taz_id_start" value="110913111"/><param key="taz_id_end" value="111114923"/></trip>
    <trip id="2527391_1873541_384_0" depart="109644" fromTaz="-53486228" toTaz="-836145069" type="passenger"><param key="taz_id_start" value="110606644"/><param key="taz_id_end" value="110605032"/></trip>
    <trip id="4195828_2759926_391_1" depart="109674" fromTaz="835789461" toTaz="-773925199" type="passenger"><param key="taz_id_start" value="111208513"/><param key="taz_id_end" value="110110013"/></trip>
    <trip id="4169335_2750559_389_1" depart="109707" fromTaz="897432933" toTaz="53463996" type="passenger"><param key="taz_id_start" value="111209112"/><param key="taz_id_end" value="111208931"/></trip>
    <trip id="3256441_2255515_388_0" depart="109725" fromTaz="53490057" toTaz="-53487939" type="passenger"><param key="taz_id_start" value="110808312"/><param key="taz_id_end" value="110808061"/></trip>
    <trip id="3419838_2363268_384_1" depart="109729" fromTaz="-53486207" toTaz="-53505308" type="passenger"><param key="taz_id_start" value="110913111"/><param key="taz_id_end" value="111114923"/></trip>
    <trip id="3861766_2598948_389_1" depart="109730" fromTaz="53505945" toTaz="53515266" type="passenger"><param key="taz_id_start" value="111115213"/><param key="taz_id_end" value="111114523"/></trip>
    <trip id="3535470_2418116_396_0" depart="109734" fromTaz="53474983" toTaz="822332097" type="passenger"><param key="taz_id_start" value="110912012"/><param key="taz_id_end" value="110100711"/></trip>
    <trip id="3118135_2198360_385_0" depart="109737" fromTaz="53472386" toTaz="53483587" type="passenger"><param key="taz_id_start" value="110705612"/><param key="taz_id_end" value="110808012"/></trip>
    <trip id="2700498_1982548_383_1" depart="109741" fromTaz="53520759" toTaz="53522084" type="passenger"><param key="taz_id_start" value="110606432"/><param key="taz_id_end" value="110604922"/></trip>
    <trip id="3861766_2598948_389_0" depart="109747" fromTaz="53505945" toTaz="53515266" type="passenger"><param key="taz_id_start" value="111115213"/><param key="taz_id_end" value="111114523"/></trip>
    <trip id="2228904_1734348_394_1" depart="109780" fromTaz="-53468226" toTaz="-53470311" type="passenger"><param key="taz_id_start" value="110503113"/><param key="taz_id_end" value="110503723"/></trip>
    <trip id="2395871_1806735_385_1" depart="109787" fromTaz="53467197" toTaz="-53471673" type="passenger"><param key="taz_id_start" value="110502744"/><param key="taz_id_end" value="110402532"/></trip>
    <trip id="1622001_1350323_397_1" depart="109812" fromTaz="897905568" toTaz="53503664" type="passenger"><param key="taz_id_start" value="110310713"/><param key="taz_id_end" value="110316021"/></trip>
    <trip id="2700498_1982548_383_0" depart="109821" fromTaz="53520759" toTaz="53522084" type="passenger"><param key="taz_id_start" value="110606432"/><param key="taz_id_end" value="110604922"/></trip>
    <trip id="2671245_1953295_388_0" depart="109825" fromTaz="53490672" toTaz="53490469" type="passenger"><param key="taz_id_start" value="110605232"/><param key="taz_id_end" value="110604913"/></trip>
    <trip id="3094633_2192574_390_1" depart="109825" fromTaz="827883206" toTaz="-572683184" type="passenger_restricted"><param key="taz_id_start" value="110808313"/><param key="taz_id_end" value="110912624"/></trip>
    <trip id="3094633_2192574_390_0" depart="109842" fromTaz="827883206" toTaz="-572683184" type="passenger_restricted"><param key="taz_id_start" value="110808313"/><param key="taz_id_end" value="110912624"/></trip>