<routes xmlns:xsi="http://www.w3.org/2001/XMLSchema-instance" xsi:noNamespaceSchemaLocation="http://sumo.dlr.de/xsd/routes_file.xsd">
    <trip id="100400222_100273347_431_1" depart="111954" fromTaz="-4685763#4" toTaz="169195795#2" type="medium_passenger_gas"><param key="taz_id_start" value="110201511"/><param key="taz_id_end" value="110110212"/></trip>
    <trip id="100400222_100273347_431_0" depart="112505" fromTaz="-4685763#4" toTaz="169195795#2" type="medium_passenger_gas"><param key="taz_id_start" value="110201511"/><param key="taz_id_end" value="110110212"/></trip>
    <trip id="100384762_100257887_470_1" depart="114615" fromTaz="23343818#6" toTaz="169195795#2" type="small_passenger_gas"><param key="taz_id_start" value="110201511"/><param key="taz_id_end" value="110110212"/></trip>
    <trip id="100384762_100257887_470_0" depart="114726" fromTaz="23343818#6" toTaz="169195795#2" type="small_passenger_gas"><param key="taz_id_start" value="110201511"/><param key="taz_id_end" value="110110212"/></trip>
    <trip id="102530463_101485030_503_1" depart="116271" fromTaz="36892597#0" toTaz="36892597#0" type="medium_passenger_gasoline"><param key="taz_id_start" value="110110013"/><param key="taz_id_end" value="110110013"/></trip>
    <trip id="102972191_101748622_505_1" depart="116325" fromTaz="169195795#2" toTaz="169195795#2" type="medium_passenger_gas"><param key="taz_id_start" value="110110212"/><param key="taz_id_end" value="110110212"/></trip>
    <trip id="102972191_101748622_505_0" depart="116515" fromTaz="169195795#2" toTaz="169195795#2" type="medium_passenger_gas"><param key="taz_id_start" value="110110212"/><param key="taz_id_end" value="110110212"/></trip>
    <trip id="101489817_100920567_510_0" depart="116622" fromTaz="-168942727#1" toTaz="-168942727#1" type="small_passenger_gas"><param key="taz_id_start" value="110110013"/><param key="taz_id_end" value="110110013"/></trip>
    <trip id="102530463_101485030_503_0" depart="116708" fromTaz="36892597#0" toTaz="36892597#0" type="medium_passenger_gasoline"><param key="taz_id_start" value="110110013"/><param key="taz_id_end" value="110110013"/></trip>
    <trip id="102660557_101572918_514_0" depart="116915" fromTaz="36892597#0" toTaz="36892597#0" type="medium_passenger_gas"><param key="taz_id_start" value="110110013"/><param key="taz_id_end" value="110110013"/></trip>
    <trip id="102660557_101572918_514_1" depart="117022" fromTaz="36892597#0" toTaz="36892597#0" type="medium_passenger_gas"><param key="taz_id_start" value="110110013"/><param key="taz_id_end" value="110110013"/></trip>
    <trip id="100516873_100333223_515_1" depart="117188" fromTaz="22972219#0" toTaz="35578576#1" type="medium_passenger_gas"><param key="taz_id_start" value="110110212"/><param key="taz_id_end" value="110110212"/></trip>
    <trip id="101489817_100920567_510_1" depart="117287" fromTaz="-168942727#1" toTaz="-168942727#1" type="small_passenger_gas"><param key="taz_id_start" value="110110013"/><param key="taz_id_end" value="110110013"/></trip>
    <trip id="100516873_100333223_515_0" depart="117353" fromTaz="22972219#0" toTaz="35578576#1" type="medium_passenger_gas"><param key="taz_id_start" value="110110212"/><param key="taz_id_end" value="110110212"/></trip>
    <trip id="103038545_101771666_525_1" depart="118246" fromTaz="55495482#0" toTaz="55495482#0" type="medium_passenger_gas"><param key="taz_id_start" value="110100521"/><param key="taz_id_end" value="110100521"/></trip>
    <trip id="103038545_101771666_525_0" depart="118247" fromTaz="55495482#0" toTaz="55495482#0" type="medium_passenger_gas"><param key="taz_id_start" value="110100521"/><param key="taz_id_end" value="110100521"/></trip>
    <trip id="100623384_100401727_540_1" depart="118651" fromTaz="312176585#0" toTaz="312176585#0" type="small_passenger_gas"><param key="taz_id_start" value="110110123"/><param key="taz_id_end" value="110110123"/></trip>
    <trip id="100623384_100401727_540_0" depart="118735" fromTaz="312176585#0" toTaz="312176585#0" type="small_passenger_gas"><param key="taz_id_start" value="110110123"/><param key="taz_id_end" value="110110123"/></trip>
    <trip id="103106029_101829737_545_1" depart="118902" fromTaz="22972473#3" toTaz="22972473#3" type="medium_passenger_gas"><param key="taz_id_start" value="110110326"/><param key="taz_id_end" value="110110326"/></trip>
    <trip id="103113152_101836860_540_0" depart="118976" fromTaz="24997595" toTaz="-4588219#2" type="small_passenger_gas"><param key="taz_id_start" value="110110326"/><param key="taz_id_end" value="110110326"/></trip>
    <trip id="102093362_101267005_540_0" depart="119087" fromTaz="22972473#3" toTaz="22972473#3" type="small_passenger_gas"><param key="taz_id_start" value="110110326"/><param key="taz_id_end" value="110110326"/></trip>
    <trip id="100107669_100107669_548_1" depart="119089" fromTaz="-55741054" toTaz="4610355#0" type="small_passenger_gas"><param key="taz_id_start" value="110110013"/><param key="taz_id_end" value="110110013"/></trip>
    <trip id="102093362_101267005_540_1" depart="119173" fromTaz="22972473#3" toTaz="22972473#3" type="small_passenger_gas"><param key="taz_id_start" value="110110326"/><param key="taz_id_end" value="110110326"/></trip>
    <trip id="103113152_101836860_540_1" depart="119225" fromTaz="24997595" toTaz="-4588219#2" type="small_passenger_gas"><param key="taz_id_start" value="110110326"/><param key="taz_id_end" value="110110326"/></trip>
    <trip id="103106029_101829737_545_0" depart="119389" fromTaz="22972473#3" toTaz="22972473#3" type="medium_passenger_gas"><param key="taz_id_start" value="110110326"/><param key="taz_id_end" value="110110326"/></trip>
    <trip id="100107669_100107669_548_0" depart="119722" fromTaz="-55741054" toTaz="4610355#0" type="small_passenger_gas"><param key="taz_id_start" value="110110013"/><param key="taz_id_end" value="110110013"/></trip>
    <trip id="102414589_101436126_555_1" depart="119731" fromTaz="84960597#0" toTaz="84960597#0" type="small_passenger_gas"><param key="taz_id_start" value="110110013"/><param key="taz_id_end" value="110110013"/></trip>
    <trip id="102414589_101436126_555_0" depart="119845" fromTaz="84960597#0" toTaz="84960597#0" type="small_passenger_gas"><param key="taz_id_start" value="110110013"/><param key="taz_id_end" value="110110013"/></trip>
    <trip id="101898867_101156959_564_0" depart="120120" fromTaz="541295978#0" toTaz="541295978#0" type="medium_passenger_gas"><param key="taz_id_start" value="110109812"/><param key="taz_id_end" value="110109812"/></trip>
    <trip id="102995348_101758444_564_0" depart="120291" fromTaz="23755961#2" toTaz="23755961#2" type="small_passenger_gasoline"><param key="taz_id_start" value="110110324"/><param key="taz_id_end" value="110110324"/></trip>
    <trip id="100554242_100342387_570_0" depart="120325" fromTaz="169195795#2" toTaz="169195795#2" type="medium_passenger_gas"><param key="taz_id_start" value="110110212"/><param key="taz_id_end" value="110110212"/></trip>
    <trip id="102995348_101758444_564_1" depart="120381" fromTaz="23755961#2" toTaz="23755961#2" type="small_passenger_gasoline"><param key="taz_id_start" value="110110324"/><param key="taz_id_end" value="110110324"/></trip>
    <trip id="102607928_101544285_565_0" depart="120520" fromTaz="66071366#2" toTaz="66071366#2" type="small_passenger_gas"><param key="taz_id_start" value="110110324"/><param key="taz_id_end" value="110110324"/></trip>
    <trip id="101898867_101156959_564_1" depart="120636" fromTaz="541295978#0" toTaz="541295978#0" type="medium_passenger_gas"><param key="taz_id_start" value="110109812"/><param key="taz_id_end" value="110109812"/></trip>
    <trip id="102607928_101544285_565_1" depart="120714" fromTaz="66071366#2" toTaz="66071366#2" type="small_passenger_gas"><param key="taz_id_start" value="110110324"/><param key="taz_id_end" value="110110324"/></trip>
    <trip id="100554242_100342387_570_1" depart="120764" fromTaz="169195795#2" toTaz="169195795#2" type="medium_passenger_gas"><param key="taz_id_start" value="110110212"/><param key="taz_id_end" value="110110212"/></trip>
    <trip id="100636378_100414721_579_1" depart="120913" fromTaz="22972195#2" toTaz="22972195#2" type="small_passenger_gas"><param key="taz_id_start" value="110110212"/><param key="taz_id_end" value="110110212"/></trip>
    <trip id="103110283_101833991_575_1" depart="120925" fromTaz="84960597#0" toTaz="84960597#0" type="medium_passenger_gas"><param key="taz_id_start" value="110110013"/><param key="taz_id_end" value="110110013"/></trip>
    <trip id="103110283_101833991_575_0" depart="120984" fromTaz="84960597#0" toTaz="84960597#0" type="medium_passenger_gas"><param key="taz_id_start" value="110110013"/><param key="taz_id_end" value="110110013"/></trip>
    <trip id="102968359_101746706_578_0" depart="121125" fromTaz="100405009#0" toTaz="312176585#0" type="medium_passenger_gas"><param key="taz_id_start" value="110110123"/><param key="taz_id_end" value="110110123"/></trip>
    <trip id="102066241_101239884_575_0" depart="121155" fromTaz="43159545#0" toTaz="43159545#0" type="small_passenger_gas"><param key="taz_id_start" value="110110113"/><param key="taz_id_end" value="110110113"/></trip>
    <trip id="101777898_101085602_585_0" depart="121173" fromTaz="11103418" toTaz="-4296467#1" type="small_passenger_gas"><param key="taz_id_start" value="110110013"/><param key="taz_id_end" value="110110013"/></trip>
    <trip id="102968359_101746706_578_1" depart="121187" fromTaz="100405009#0" toTaz="312176585#0" type="medium_passenger_gas"><param key="taz_id_start" value="110110123"/><param key="taz_id_end" value="110110123"/></trip>
    <trip id="100636378_100414721_579_0" depart="121225" fromTaz="22972195#2" toTaz="22972195#2" type="small_passenger_gas"><param key="taz_id_start" value="110110212"/><param key="taz_id_end" value="110110212"/></trip>
    <trip id="102903401_101714227_580_1" depart="121253" fromTaz="169195795#2" toTaz="169195795#2" type="medium_passenger_gas"><param key="taz_id_start" value="110110212"/><param key="taz_id_end" value="110110212"/></trip>
    <trip id="102066241_101239884_575_1" depart="121283" fromTaz="43159545#0" toTaz="43159545#0" type="small_passenger_gas"><param key="taz_id_start" value="110110113"/><param key="taz_id_end" value="110110113"/></trip>
    <trip id="100390957_100264082_585_1" depart="121311" fromTaz="-9657820#0" toTaz="-9657820#0" type="small_passenger_gas"><param key="taz_id_start" value="110100521"/><param key="taz_id_end" value="110100521"/></trip>
    <trip id="100390957_100264082_585_0" depart="121318" fromTaz="-9657820#0" toTaz="-9657820#0" type="small_passenger_gas"><param key="taz_id_start" value="110100521"/><param key="taz_id_end" value="110100521"/></trip>
    <trip id="101777898_101085602_585_1" depart="121346" fromTaz="11103418" toTaz="-4296467#1" type="small_passenger_gas"><param key="taz_id_start" value="110110013"/><param key="taz_id_end" value="110110013"/></trip>
    <trip id="102903401_101714227_580_0" depart="121428" fromTaz="169195795#2" toTaz="169195795#2" type="medium_passenger_gas"><param key="taz_id_start" value="110110212"/><param key="taz_id_end" value="110110212"/></trip>
    <trip id="100242240_100172392_592_1" depart="121485" fromTaz="11103418" toTaz="46140378" type="medium_passenger_gas"><param key="taz_id_start" value="110110013"/><param key="taz_id_end" value="110110013"/></trip>
    <trip id="101114193_100709244_585_0" depart="121746" fromTaz="541295978#0" toTaz="541295978#0" type="small_passenger_gas"><param key="taz_id_start" value="110109812"/><param key="taz_id_end" value="110109812"/></trip>
    <trip id="101114193_100709244_585_1" depart="121830" fromTaz="541295978#0" toTaz="541295978#0" type="small_passenger_gas"><param key="taz_id_start" value="110109812"/><param key="taz_id_end" value="110109812"/></trip>
    <trip id="100133293_100124248_595_1" depart="121850" fromTaz="22972473#4" toTaz="-24997595" type="small_passenger_gas"><param key="taz_id_start" value="110110326"/><param key="taz_id_end" value="110110326"/></trip>
    <trip id="102473903_101465783_600_1" depart="121955" fromTaz="-176031315#2" toTaz="-176031315#2" type="small_passenger_gas"><param key="taz_id_start" value="110110424"/><param key="taz_id_end" value="110110424"/></trip>
    <trip id="102473903_101465783_600_0" depart="121965" fromTaz="-176031315#2" toTaz="-176031315#2" type="small_passenger_gas"><param key="taz_id_start" value="110110424"/><param key="taz_id_end" value="110110424"/></trip>
    <trip id="100793204_100520279_600_1" depart="121995" fromTaz="169195795#2" toTaz="169195795#2" type="medium_passenger_gas"><param key="taz_id_start" value="110110212"/><param key="taz_id_end" value="110110212"/></trip>
    <trip id="100133293_100124248_595_0" depart="122035" fromTaz="22972473#4" toTaz="-24997595" type="small_passenger_gas"><param key="taz_id_start" value="110110326"/><param key="taz_id_end" value="110110326"/></trip>
    <trip id="100242240_100172392_592_0" depart="122226" fromTaz="11103418" toTaz="46140378" type="medium_passenger_gas"><param key="taz_id_start" value="110110013"/><param key="taz_id_end" value="110110013"/></trip>
    <trip id="100319760_100192885_605_1" depart="122316" fromTaz="374734389#0" toTaz="6227654#0" type="small_passenger_gas"><param key="taz_id_start" value="110109822"/><param key="taz_id_end" value="110109822"/></trip>
    <trip id="100179165_100147184_600_0" depart="122360" fromTaz="169195795#2" toTaz="169195795#2" type="medium_passenger_gasoline"><param key="taz_id_start" value="110110212"/><param key="taz_id_end" value="110110212"/></trip>
    <trip id="101898500_101156776_598_1" depart="122420" fromTaz="43159545#0" toTaz="43159545#0" type="medium_passenger_gas"><param key="taz_id_start" value="110110113"/><param key="taz_id_end" value="110110113"/></trip>
    <trip id="101898500_101156776_598_0" depart="122431" fromTaz="43159545#0" toTaz="43159545#0" type="medium_passenger_gas"><param key="taz_id_start" value="110110113"/><param key="taz_id_end" value="110110113"/></trip>
    <trip id="100414021_100287146_607_0" depart="122461" fromTaz="169195795#2" toTaz="169195795#2" type="medium_passenger_gas"><param key="taz_id_start" value="110110212"/><param key="taz_id_end" value="110110212"/></trip>
    <trip id="102093362_101267005_605_1" depart="122470" fromTaz="22972473#3" toTaz="22972473#3" type="small_passenger_gas"><param key="taz_id_start" value="110110326"/><param key="taz_id_end" value="110110326"/></trip>
    <trip id="100179165_100147184_600_1" depart="122523" fromTaz="169195795#2" toTaz="169195795#2" type="medium_passenger_gasoline"><param key="taz_id_start" value="110110212"/><param key="taz_id_end" value="110110212"/></trip>
    <trip id="100414021_100287146_607_1" depart="122753" fromTaz="169195795#2" toTaz="169195795#2" type="medium_passenger_gas"><param key="taz_id_start" value="110110212"/><param key="taz_id_end" value="110110212"/></trip>
    <trip id="100793204_100520279_600_0" depart="122757" fromTaz="169195795#2" toTaz="169195795#2" type="medium_passenger_gas"><param key="taz_id_start" value="110110212"/><param key="taz_id_end" value="110110212"/></trip>
    <trip id="102477741_101467702_615_0" depart="122885" fromTaz="22972473#3" toTaz="22972473#3" type="small_passenger_diesel"><param key="taz_id_start" value="110110326"/><param key="taz_id_end" value="110110326"/></trip>
    <trip id="100860237_100545000_615_0" depart="122888" fromTaz="541295978#0" toTaz="-437325051#1" type="medium_passenger_gas"><param key="taz_id_start" value="110109812"/><param key="taz_id_end" value="110109812"/></trip>
    <trip id="102093362_101267005_605_0" depart="122987" fromTaz="22972473#3" toTaz="22972473#3" type="small_passenger_gas"><param key="taz_id_start" value="110110326"/><param key="taz_id_end" value="110110326"/></trip>
    <trip id="100452475_100307280_615_0" depart="123094" fromTaz="-4588219#2" toTaz="-4588222#2" type="medium_passenger_gas"><param key="taz_id_start" value="110110326"/><param key="taz_id_end" value="110110326"/></trip>
    <trip id="100319760_100192885_605_0" depart="123100" fromTaz="374734389#0" toTaz="6227654#0" type="small_passenger_gas"><param key="taz_id_start" value="110109822"/><param key="taz_id_end" value="110109822"/></trip>
    <trip id="101102343_100703319_607_1" depart="123171" fromTaz="-4570580#2" toTaz="-4570580#2" type="medium_passenger_gas"><param key="taz_id_start" value="110109812"/><param key="taz_id_end" value="110109812"/></trip>
    <trip id="101102343_100703319_607_0" depart="123211" fromTaz="-4570580#2" toTaz="-4570580#2" type="medium_passenger_gas"><param key="taz_id_start" value="110109812"/><param key="taz_id_end" value="110109812"/></trip>
    <trip id="100226264_100167067_615_0" depart="123226" fromTaz="-4597202#2" toTaz="172078325#4" type="medium_passenger_diesel"><param key="taz_id_start" value="110109911"/><param key="taz_id_end" value="110109911"/></trip>
    <trip id="100001844_100001844_622_1" depart="123324" fromTaz="153692978#0" toTaz="204032443#0" type="medium_passenger_gas"><param key="taz_id_start" value="110110021"/><param key="taz_id_end" value="110110021"/></trip>
    <trip id="100197117_100156160_623_0" depart="123449" fromTaz="22972473#3" toTaz="22972470#0" type="small_passenger_gas"><param key="taz_id_start" value="110110326"/><param key="taz_id_end" value="110110326"/></trip>
    <trip id="102477741_101467702_615_1" depart="123464" fromTaz="22972473#3" toTaz="22972473#3" type="small_passenger_diesel"><param key="taz_id_start" value="110110326"/><param key="taz_id_end" value="110110326"/></trip>
    <trip id="100680227_100458570_625_0" depart="123482" fromTaz="31112516#1" toTaz="374734389#0" type="medium_passenger_gas"><param key="taz_id_start" value="110109822"/><param key="taz_id_end" value="110109822"/></trip>
    <trip id="100680227_100458570_625_1" depart="123519" fromTaz="31112516#1" toTaz="374734389#0" type="medium_passenger_gas"><param key="taz_id_start" value="110109822"/><param key="taz_id_end" value="110109822"/></trip>
    <trip id="101024107_100662945_625_1" depart="123546" fromTaz="541295978#0" toTaz="541295978#0" type="small_passenger_gas"><param key="taz_id_start" value="110109812"/><param key="taz_id_end" value="110109812"/></trip>
    <trip id="100452475_100307280_615_1" depart="123554" fromTaz="-4588219#2" toTaz="-4588222#2" type="medium_passenger_gas"><param key="taz_id_start" value="110110326"/><param key="taz_id_end" value="110110326"/></trip>
    <trip id="100226264_100167067_615_1" depart="123584" fromTaz="-4597202#2" toTaz="172078325#4" type="medium_passenger_diesel"><param key="taz_id_start" value="110109911"/><param key="taz_id_end" value="110109911"/></trip>
    <trip id="101981486_101185202_625_1" depart="123664" fromTaz="35578576#1" toTaz="-11483007#2" type="medium_passenger_gas"><param key="taz_id_start" value="110110212"/><param key="taz_id_end" value="110110212"/></trip>
    <trip id="100860237_100545000_615_1" depart="123715" fromTaz="541295978#0" toTaz="-437325051#1" type="medium_passenger_gas"><param key="taz_id_start" value="110109812"/><param key="taz_id_end" value="110109812"/></trip>
    <trip id="101046484_100675390_625_1" depart="123776" fromTaz="204032443#0" toTaz="204032443#0" type="medium_passenger_gas"><param key="taz_id_start" value="110110021"/><param key="taz_id_end" value="110110021"/></trip>
    <trip id="100001844_100001844_622_0" depart="123789" fromTaz="153692978#0" toTaz="204032443#0" type="medium_passenger_gas"><param key="taz_id_start" value="110110021"/><param key="taz_id_end" value="110110021"/></trip>
    <trip id="101046484_100675390_625_0" depart="123882" fromTaz="204032443#0" toTaz="204032443#0" type="medium_passenger_gas"><param key="taz_id_start" value="110110021"/><param key="taz_id_end" value="110110021"/></trip>
    <trip id="101024107_100662945_625_0" depart="123919" fromTaz="541295978#0" toTaz="541295978#0" type="small_passenger_gas"><param key="taz_id_start" value="110109812"/><param key="taz_id_end" value="110109812"/></trip>
    <trip id="102727205_101603872_625_0" depart="123956" fromTaz="30721660#2" toTaz="-19002363#10" type="small_passenger_gas"><param key="taz_id_start" value="110110013"/><param key="taz_id_end" value="110110013"/></trip>
    <trip id="102722196_101602202_625_0" depart="124071" fromTaz="312176585#0" toTaz="312176585#0" type="small_passenger_gas"><param key="taz_id_start" value="110110123"/><param key="taz_id_end" value="110110123"/></trip>
    <trip id="101981486_101185202_625_0" depart="124080" fromTaz="35578576#1" toTaz="-11483007#2" type="medium_passenger_gas"><param key="taz_id_start" value="110110212"/><param key="taz_id_end" value="110110212"/></trip>
    <trip id="100197117_100156160_623_1" depart="124110" fromTaz="22972473#3" toTaz="22972470#0" type="small_passenger_gas"><param key="taz_id_start" value="110110326"/><param key="taz_id_end" value="110110326"/></trip>
    <trip id="102722196_101602202_625_1" depart="124249" fromTaz="312176585#0" toTaz="312176585#0" type="small_passenger_gas"><param key="taz_id_start" value="110110123"/><param key="taz_id_end" value="110110123"/></trip>
    <trip id="102727205_101603872_625_1" depart="124307" fromTaz="30721660#2" toTaz="-19002363#10" type="small_passenger_gas"><param key="taz_id_start" value="110110013"/><param key="taz_id_end" value="110110013"/></trip>
    <trip id="100437814_100299949_632_1" depart="124333" fromTaz="169195795#2" toTaz="169195795#2" type="small_passenger_diesel"><param key="taz_id_start" value="110110212"/><param key="taz_id_end" value="110110212"/></trip>
    <trip id="100857469_100544078_636_0" depart="124437" fromTaz="23755961#0" toTaz="23755961#0" type="medium_passenger_gas"><param key="taz_id_start" value="110110326"/><param key="taz_id_end" value="110110326"/></trip>
    <trip id="100437814_100299949_632_0" depart="124541" fromTaz="169195795#2" toTaz="169195795#2" type="small_passenger_diesel"><param key="taz_id_start" value="110110212"/><param key="taz_id_end" value="110110212"/></trip>
    <trip id="102631902_101558590_645_0" depart="124689" fromTaz="172078325#4" toTaz="172078325#4" type="medium_passenger_gas"><param key="taz_id_start" value="110109911"/><param key="taz_id_end" value="110109911"/></trip>
    <trip id="100857469_100544078_636_1" depart="124830" fromTaz="23755961#0" toTaz="23755961#0" type="medium_passenger_gas"><param key="taz_id_start" value="110110326"/><param key="taz_id_end" value="110110326"/></trip>
    <trip id="100068445_100068445_640_1" depart="124853" fromTaz="25294729#0" toTaz="-25294729#1" type="small_passenger_gas"><param key="taz_id_start" value="110110111"/><param key="taz_id_end" value="110110111"/></trip>
    <trip id="102268446_101345811_650_0" depart="124977" fromTaz="22972473#3" toTaz="22972473#3" type="small_passenger_gas"><param key="taz_id_start" value="110110326"/><param key="taz_id_end" value="110110326"/></trip>
    <trip id="100068445_100068445_640_0" depart="125009" fromTaz="25294729#0" toTaz="-25294729#1" type="small_passenger_gas"><param key="taz_id_start" value="110110111"/><param key="taz_id_end" value="110110111"/></trip>
    <trip id="103227939_101889819_644_1" depart="125064" fromTaz="35578576#1" toTaz="22972195#2" type="medium_passenger_gas"><param key="taz_id_start" value="110110212"/><param key="taz_id_end" value="110110212"/></trip>
    <trip id="102268446_101345811_650_1" depart="125234" fromTaz="22972473#3" toTaz="22972473#3" type="small_passenger_gas"><param key="taz_id_start" value="110110326"/><param key="taz_id_end" value="110110326"/></trip>
    <trip id="103227939_101889819_644_0" depart="125254" fromTaz="35578576#1" toTaz="22972195#2" type="medium_passenger_gas"><param key="taz_id_start" value="110110212"/><param key="taz_id_end" value="110110212"/></trip>
    <trip id="102186358_101319661_650_1" depart="125276" fromTaz="18997847#0" toTaz="-195430959#1" type="small_passenger_gas"><param key="taz_id_start" value="110110424"/><param key="taz_id_end" value="110110424"/></trip>
    <trip id="102631902_101558590_645_1" depart="125350" fromTaz="172078325#4" toTaz="172078325#4" type="medium_passenger_gas"><param key="taz_id_start" value="110109911"/><param key="taz_id_end" value="110109911"/></trip>
    <trip id="102961056_101743054_655_0" depart="125405" fromTaz="4610362#8" toTaz="11103418" type="medium_passenger_gas"><param key="taz_id_start" value="110110013"/><param key="taz_id_end" value="110110013"/></trip>
    <trip id="102186358_101319661_650_0" depart="125457" fromTaz="18997847#0" toTaz="-195430959#1" type="small_passenger_gas"><param key="taz_id_start" value="110110424"/><param key="taz_id_end" value="110110424"/></trip>
    <trip id="102961056_101743054_655_1" depart="125497" fromTaz="4610362#8" toTaz="11103418" type="medium_passenger_gas"><param key="taz_id_start" value="110110013"/><param key="taz_id_end" value="110110013"/></trip>
    <trip id="102679283_101582281_649_1" depart="125510" fromTaz="4610355#0" toTaz="4610354#0" type="small_passenger_gas"><param key="taz_id_start" value="110110013"/><param key="taz_id_end" value="110110013"/></trip>
    <trip id="102679283_101582281_649_0" depart="125584" fromTaz="4610355#0" toTaz="4610354#0" type="small_passenger_gas"><param key="taz_id_start" value="110110013"/><param key="taz_id_end" value="110110013"/></trip>
    <trip id="102984067_101754560_655_0" depart="125686" fromTaz="100405009#0" toTaz="312176585#0" type="medium_passenger_gas"><param key="taz_id_start" value="110110123"/><param key="taz_id_end" value="110110123"/></trip>
    <trip id="100661944_100440287_655_1" depart="125797" fromTaz="4579366" toTaz="4579366" type="medium_passenger_gas"><param key="taz_id_start" value="110100521"/><param key="taz_id_end" value="110100521"/></trip>
    <trip id="100758476_100502915_656_1" depart="125893" fromTaz="24913519#0" toTaz="-28016312#3" type="small_passenger_gas"><param key="taz_id_start" value="110110111"/><param key="taz_id_end" value="110110111"/></trip>
    <trip id="100019926_100019926_660_1" depart="125921" fromTaz="25294728" toTaz="24913519#0" type="small_passenger_gas"><param key="taz_id_start" value="110110111"/><param key="taz_id_end" value="110110111"/></trip>
    <trip id="100758476_100502915_656_0" depart="125959" fromTaz="24913519#0" toTaz="-28016312#3" type="small_passenger_gas"><param key="taz_id_start" value="110110111"/><param key="taz_id_end" value="110110111"/></trip>
    <trip id="100661944_100440287_655_0" depart="125967" fromTaz="4579366" toTaz="4579366" type="medium_passenger_gas"><param key="taz_id_start" value="110100521"/><param key="taz_id_end" value="110100521"/></trip>
    <trip id="102984067_101754560_655_1" depart="126059" fromTaz="100405009#0" toTaz="312176585#0" type="medium_passenger_gas"><param key="taz_id_start" value="110110123"/><param key="taz_id_end" value="110110123"/></trip>
    <trip id="100147816_100131510_660_1" depart="126084" fromTaz="-147066248#8" toTaz="-35557161#1" type="small_passenger_gas"><param key="taz_id_start" value="110110324"/><param key="taz_id_end" value="110110324"/></trip>
    <trip id="100478955_100320520_665_0" depart="126165" fromTaz="-67099797#0" toTaz="-168935757#3" type="medium_passenger_gas"><param key="taz_id_start" value="110110314"/><param key="taz_id_end" value="110110314"/></trip>
    <trip id="102838160_101664024_670_0" depart="126179" fromTaz="312176585#0" toTaz="312176585#0" type="medium_passenger_gasoline"><param key="taz_id_start" value="110110123"/><param key="taz_id_end" value="110110123"/></trip>
    <trip id="100019926_100019926_660_0" depart="126210" fromTaz="25294728" toTaz="24913519#0" type="small_passenger_gas"><param key="taz_id_start" value="110110111"/><param key="taz_id_end" value="110110111"/></trip>
    <trip id="103253568_101897081_671_0" depart="126213" fromTaz="36892597#0" toTaz="36892597#0" type="medium_passenger_gas"><param key="taz_id_start" value="110110013"/><param key="taz_id_end" value="110110013"/></trip>
    <trip id="101869273_101142162_665_1" depart="126247" fromTaz="-11483007#2" toTaz="169999355#0" type="small_passenger_gas"><param key="taz_id_start" value="110110212"/><param key="taz_id_end" value="110110212"/></trip>
    <trip id="100328063_100201188_671_1" depart="126296" fromTaz="4403559#0" toTaz="4403559#0" type="medium_passenger_gas"><param key="taz_id_start" value="110109812"/><param key="taz_id_end" value="110109812"/></trip>
    <trip id="100147816_100131510_660_0" depart="126323" fromTaz="-147066248#8" toTaz="-35557161#1" type="small_passenger_gas"><param key="taz_id_start" value="110110324"/><param key="taz_id_end" value="110110324"/></trip>
    <trip id="103253568_101897081_671_1" depart="126399" fromTaz="36892597#0" toTaz="36892597#0" type="medium_passenger_gas"><param key="taz_id_start" value="110110013"/><param key="taz_id_end" value="110110013"/></trip>
    <trip id="102591980_101528337_675_1" depart="126525" fromTaz="4615362" toTaz="4615362" type="small_passenger_gas"><param key="taz_id_start" value="110311011"/><param key="taz_id_end" value="110311011"/></trip>
    <trip id="103038870_101771747_670_0" depart="126535" fromTaz="188046016#0" toTaz="100405009#0" type="small_passenger_gas"><param key="taz_id_start" value="110110123"/><param key="taz_id_end" value="110110123"/></trip>
    <trip id="100478955_100320520_665_1" depart="126582" fromTaz="-67099797#0" toTaz="-168935757#3" type="medium_passenger_gas"><param key="taz_id_start" value="110110314"/><param key="taz_id_end" value="110110314"/></trip>
    <trip id="101489817_100920567_676_0" depart="126582" fromTaz="-168942727#1" toTaz="-168942727#1" type="small_passenger_gas"><param key="taz_id_start" value="110110013"/><param key="taz_id_end" value="110110013"/></trip>