<routes xmlns:xsi="http://www.w3.org/2001/XMLSchema-instance" xsi:noNamespaceSchemaLocation="http://sumo.dlr.de/xsd/routes_file.xsd">
    <trip id="100011335_100011335_258_1" depart="101922" fromTaz="-297373653#3" toTaz="274754088#0" type="medium_passenger_gas"><param key="taz_id_start" value="110100715"/><param key="taz_id_end" value="110100814"/></trip>
    <trip id="100063692_100063692_270_1" depart="102280" fromTaz="4613295#0" toTaz="4068078#0" type="medium_passenger_gas"><param key="taz_id_start" value="110110121"/><param key="taz_id_end" value="110211811"/></trip>
    <trip id="100011335_100011335_258_0" depart="102324" fromTaz="-297373653#3" toTaz="274754088#0" type="medium_passenger_gas"><param key="taz_id_start" value="110100715"/><param key="taz_id_end" value="110100814"/></trip>
    <trip id="100063692_100063692_270_0" depart="102519" fromTaz="4613295#0" toTaz="4068078#0" type="medium_passenger_gas"><param key="taz_id_start" value="110110121"/><param key="taz_id_end" value="110211811"/></trip>
    <trip id="100021447_100021447_282_1" depart="103037" fromTaz="286774655#0" toTaz="43159545#0" type="medium_passenger_gas"><param key="taz_id_start" value="110100222"/><param key="taz_id_end" value="110110113"/></trip>
    <trip id="100059587_100059587_277_1" depart="103121" fromTaz="-16571799#3" toTaz="-243854725#3" type="medium_passenger_gas"><param key="taz_id_start" value="110100715"/><param key="taz_id_end" value="110110325"/></trip>
    <trip id="100059587_100059587_277_0" depart="103182" fromTaz="-16571799#3" toTaz="-243854725#3" type="medium_passenger_gas"><param key="taz_id_start" value="110100715"/><param key="taz_id_end" value="110110325"/></trip>
    <trip id="100049593_100049593_279_1" depart="103221" fromTaz="-131650081#5" toTaz="-195430953" type="small_passenger_gas"><param key="taz_id_start" value="110100713"/><param key="taz_id_end" value="110110422"/></trip>
    <trip id="100060234_100060234_277_0" depart="103221" fromTaz="286774655#0" toTaz="-268524821" type="small_passenger_gasoline"><param key="taz_id_start" value="110100814"/><param key="taz_id_end" value="110211723"/></trip>
    <trip id="100049593_100049593_279_0" depart="103408" fromTaz="-131650081#5" toTaz="-195430953" type="small_passenger_gas"><param key="taz_id_start" value="110100713"/><param key="taz_id_end" value="110110422"/></trip>
    <trip id="100060234_100060234_277_1" depart="103448" fromTaz="286774655#0" toTaz="-268524821" type="small_passenger_gasoline"><param key="taz_id_start" value="110100814"/><param key="taz_id_end" value="110211723"/></trip>
    <trip id="100046781_100046781_292_1" depart="103602" fromTaz="-297373653#3" toTaz="24968394#0" type="medium_passenger_gasoline"><param key="taz_id_start" value="110100712"/><param key="taz_id_end" value="110310614"/></trip>
    <trip id="100031053_100031053_294_0" depart="103611" fromTaz="4611886" toTaz="-53257010#0" type="small_passenger_gas"><param key="taz_id_start" value="110100524"/><param key="taz_id_end" value="110109922"/></trip>
    <trip id="100041391_100041391_294_1" depart="103629" fromTaz="286774655#0" toTaz="24968394#0" type="medium_passenger_gas"><param key="taz_id_start" value="110100224"/><param key="taz_id_end" value="110310711"/></trip>
    <trip id="100053371_100053371_292_1" depart="103673" fromTaz="-297373653#3" toTaz="168829867#0" type="small_passenger_gas"><param key="taz_id_start" value="110109932"/><param key="taz_id_end" value="110211612"/></trip>
    <trip id="100012167_100012167_294_0" depart="103681" fromTaz="4611886" toTaz="274754088#0" type="small_passenger_gas"><param key="taz_id_start" value="110100524"/><param key="taz_id_end" value="110100814"/></trip>
    <trip id="100021447_100021447_282_0" depart="103708" fromTaz="286774655#0" toTaz="43159545#0" type="medium_passenger_gas"><param key="taz_id_start" value="110100222"/><param key="taz_id_end" value="110110113"/></trip>
    <trip id="100009516_100009516_294_0" depart="103741" fromTaz="4611886" toTaz="312176585#0" type="small_passenger_gas"><param key="taz_id_start" value="110100524"/><param key="taz_id_end" value="110110123"/></trip>
    <trip id="100046781_100046781_292_0" depart="103802" fromTaz="-297373653#3" toTaz="24968394#0" type="medium_passenger_gasoline"><param key="taz_id_start" value="110100712"/><param key="taz_id_end" value="110310614"/></trip>
    <trip id="100059128_100059128_295_0" depart="103817" fromTaz="-16571799#3" toTaz="-373389574#4" type="medium_passenger_gas"><param key="taz_id_start" value="110100715"/><param key="taz_id_end" value="110311021"/></trip>
    <trip id="100062255_100062255_294_0" depart="103920" fromTaz="286774655#0" toTaz="4613296#0" type="small_passenger_gas"><param key="taz_id_start" value="110100224"/><param key="taz_id_end" value="110110121"/></trip>
    <trip id="100041391_100041391_294_0" depart="103964" fromTaz="286774655#0" toTaz="24968394#0" type="medium_passenger_gas"><param key="taz_id_start" value="110100224"/><param key="taz_id_end" value="110310711"/></trip>
    <trip id="100059128_100059128_295_1" depart="103992" fromTaz="-16571799#3" toTaz="-373389574#4" type="medium_passenger_gas"><param key="taz_id_start" value="110100715"/><param key="taz_id_end" value="110311021"/></trip>
    <trip id="100055391_100055391_296_1" depart="104028" fromTaz="-24993933#4" toTaz="243854725#4" type="small_passenger_gas"><param key="taz_id_start" value="110110121"/><param key="taz_id_end" value="110110325"/></trip>
    <trip id="100047179_100047179_295_0" depart="104062" fromTaz="4613295#2" toTaz="274754088#0" type="small_passenger_gas"><param key="taz_id_start" value="110110121"/><param key="taz_id_end" value="110100814"/></trip>
    <trip id="100012167_100012167_294_1" depart="104063" fromTaz="4611886" toTaz="274754088#0" type="small_passenger_gas"><param key="taz_id_start" value="110100524"/><param key="taz_id_end" value="110100814"/></trip>
    <trip id="100027316_100027316_302_0" depart="104073" fromTaz="4611886" toTaz="312176585#0" type="small_passenger_gas"><param key="taz_id_start" value="110100522"/><param key="taz_id_end" value="110110123"/></trip>
    <trip id="100053371_100053371_292_0" depart="104136" fromTaz="-297373653#3" toTaz="168829867#0" type="small_passenger_gas"><param key="taz_id_start" value="110109932"/><param key="taz_id_end" value="110211612"/></trip>
    <trip id="100055391_100055391_296_0" depart="104142" fromTaz="-24993933#4" toTaz="243854725#4" type="small_passenger_gas"><param key="taz_id_start" value="110110121"/><param key="taz_id_end" value="110110325"/></trip>
    <trip id="100045708_100045708_301_1" depart="104205" fromTaz="37289167#0" toTaz="28536387#0" type="small_passenger_gas"><param key="taz_id_start" value="110100512"/><param key="taz_id_end" value="110211512"/></trip>
    <trip id="100018056_100018056_291_1" depart="104249" fromTaz="172078325#4" toTaz="146911405#2" type="small_passenger_gas"><param key="taz_id_start" value="110109911"/><param key="taz_id_end" value="110912011"/></trip>
    <trip id="100009516_100009516_294_1" depart="104255" fromTaz="4611886" toTaz="312176585#0" type="small_passenger_gas"><param key="taz_id_start" value="110100524"/><param key="taz_id_end" value="110110123"/></trip>
    <trip id="100031053_100031053_294_1" depart="104267" fromTaz="4611886" toTaz="-53257010#0" type="small_passenger_gas"><param key="taz_id_start" value="110100524"/><param key="taz_id_end" value="110109922"/></trip>
    <trip id="100018056_100018056_291_0" depart="104299" fromTaz="172078325#4" toTaz="146911405#2" type="small_passenger_gas"><param key="taz_id_start" value="110109911"/><param key="taz_id_end" value="110912011"/></trip>
    <trip id="100062255_100062255_294_1" depart="104431" fromTaz="286774655#0" toTaz="4613296#0" type="small_passenger_gas"><param key="taz_id_start" value="110100224"/><param key="taz_id_end" value="110110121"/></trip>
    <trip id="100045708_100045708_301_0" depart="104477" fromTaz="37289167#0" toTaz="28536387#0" type="small_passenger_gas"><param key="taz_id_start" value="110100512"/><param key="taz_id_end" value="110211512"/></trip>
    <trip id="100033130_100033130_307_1" depart="104517" fromTaz="-153698391" toTaz="-4597205" type="medium_passenger_gas"><param key="taz_id_start" value="110100122"/><param key="taz_id_end" value="110109911"/></trip>
    <trip id="100047179_100047179_295_1" depart="104525" fromTaz="4613295#2" toTaz="274754088#0" type="small_passenger_gas"><param key="taz_id_start" value="110110121"/><param key="taz_id_end" value="110100814"/></trip>
    <trip id="100013116_100013116_305_0" depart="104553" fromTaz="304627753#0" toTaz="274754088#0" type="small_passenger_gas"><param key="taz_id_start" value="110110421"/><param key="taz_id_end" value="110100814"/></trip>
    <trip id="100056168_100056168_305_1" depart="104572" fromTaz="78298215#0" toTaz="4611886" type="small_passenger_gas"><param key="taz_id_start" value="110100321"/><param key="taz_id_end" value="110100521"/></trip>
    <trip id="100047935_100047935_309_1" depart="104584" fromTaz="-172078325#2" toTaz="274754088#0" type="medium_passenger_gas"><param key="taz_id_start" value="110100713"/><param key="taz_id_end" value="110100814"/></trip>
    <trip id="100013116_100013116_305_1" depart="104638" fromTaz="304627753#0" toTaz="274754088#0" type="small_passenger_gas"><param key="taz_id_start" value="110110421"/><param key="taz_id_end" value="110100814"/></trip>
    <trip id="100056168_100056168_305_0" depart="104685" fromTaz="78298215#0" toTaz="4611886" type="small_passenger_gas"><param key="taz_id_start" value="110100321"/><param key="taz_id_end" value="110100521"/></trip>
    <trip id="100047935_100047935_309_0" depart="104787" fromTaz="-172078325#2" toTaz="274754088#0" type="medium_passenger_gas"><param key="taz_id_start" value="110100713"/><param key="taz_id_end" value="110100814"/></trip>
    <trip id="100053611_100053611_314_0" depart="104801" fromTaz="78298215#0" toTaz="312176585#0" type="small_passenger_gas"><param key="taz_id_start" value="110100322"/><param key="taz_id_end" value="110110123"/></trip>
    <trip id="100027316_100027316_302_1" depart="104905" fromTaz="4611886" toTaz="312176585#0" type="small_passenger_gas"><param key="taz_id_start" value="110100522"/><param key="taz_id_end" value="110110123"/></trip>
    <trip id="100048484_100048484_304_1" depart="104959" fromTaz="-297373653#3" toTaz="4782523#0" type="small_passenger_gasoline"><param key="taz_id_start" value="110109932"/><param key="taz_id_end" value="110310825"/></trip>
    <trip id="100048484_100048484_304_0" depart="104961" fromTaz="-297373653#3" toTaz="4782523#0" type="small_passenger_gasoline"><param key="taz_id_start" value="110109932"/><param key="taz_id_end" value="110310825"/></trip>
    <trip id="100028222_100028222_306_0" depart="105069" fromTaz="665241888#0" toTaz="274754088#0" type="small_passenger_gas"><param key="taz_id_start" value="110110314"/><param key="taz_id_end" value="110100814"/></trip>
    <trip id="100028222_100028222_306_1" depart="105083" fromTaz="665241888#0" toTaz="274754088#0" type="small_passenger_gas"><param key="taz_id_start" value="110110314"/><param key="taz_id_end" value="110100814"/></trip>
    <trip id="100053645_100053645_313_1" depart="105109" fromTaz="286774655#0" toTaz="312176585#0" type="small_passenger_gas"><param key="taz_id_start" value="110100224"/><param key="taz_id_end" value="110110123"/></trip>
    <trip id="100015303_100015303_312_1" depart="105125" fromTaz="-16571799#3" toTaz="4606231#0" type="small_passenger_gasoline"><param key="taz_id_start" value="110109933"/><param key="taz_id_end" value="110311011"/></trip>
    <trip id="100015303_100015303_312_0" depart="105189" fromTaz="-16571799#3" toTaz="4606231#0" type="small_passenger_gasoline"><param key="taz_id_start" value="110109933"/><param key="taz_id_end" value="110311011"/></trip>
    <trip id="100033130_100033130_307_0" depart="105247" fromTaz="-153698391" toTaz="-4597205" type="medium_passenger_gas"><param key="taz_id_start" value="110100122"/><param key="taz_id_end" value="110109911"/></trip>
    <trip id="100044992_100044992_316_0" depart="105248" fromTaz="274754088#0" toTaz="-225400578#1" type="small_passenger_gas"><param key="taz_id_start" value="110100811"/><param key="taz_id_end" value="110110012"/></trip>
    <trip id="100053645_100053645_313_0" depart="105321" fromTaz="286774655#0" toTaz="312176585#0" type="small_passenger_gas"><param key="taz_id_start" value="110100224"/><param key="taz_id_end" value="110110123"/></trip>
    <trip id="100053611_100053611_314_1" depart="105336" fromTaz="78298215#0" toTaz="312176585#0" type="small_passenger_gas"><param key="taz_id_start" value="110100322"/><param key="taz_id_end" value="110110123"/></trip>
    <trip id="100004365_100004365_324_1" depart="105402" fromTaz="-4615494#6" toTaz="274754088#0" type="small_passenger_gas"><param key="taz_id_start" value="110110514"/><param key="taz_id_end" value="110100814"/></trip>
    <trip id="100004365_100004365_324_0" depart="105473" fromTaz="-4615494#6" toTaz="274754088#0" type="small_passenger_gas"><param key="taz_id_start" value="110110514"/><param key="taz_id_end" value="110100814"/></trip>
    <trip id="100044992_100044992_316_1" depart="105485" fromTaz="274754088#0" toTaz="-225400578#1" type="small_passenger_gas"><param key="taz_id_start" value="110100811"/><param key="taz_id_end" value="110110012"/></trip>
    <trip id="100060300_100060300_316_1" depart="105573" fromTaz="-16571799#3" toTaz="4773465#0" type="small_passenger_gas"><param key="taz_id_start" value="110100712"/><param key="taz_id_end" value="110110111"/></trip>
    <trip id="100002691_100002691_323_1" depart="105633" fromTaz="-48303485#3" toTaz="274754088#0" type="small_passenger_gas"><param key="taz_id_start" value="110110513"/><param key="taz_id_end" value="110100814"/></trip>
    <trip id="100060300_100060300_316_0" depart="105655" fromTaz="-16571799#3" toTaz="4773465#0" type="small_passenger_gas"><param key="taz_id_start" value="110100712"/><param key="taz_id_end" value="110110111"/></trip>
    <trip id="100064536_100064536_325_0" depart="105698" fromTaz="274754088#0" toTaz="344594962" type="small_passenger_gas"><param key="taz_id_start" value="110100814"/><param key="taz_id_end" value="110110112"/></trip>
    <trip id="100056184_100056184_318_0" depart="105759" fromTaz="4616595" toTaz="312176585#0" type="small_passenger_gas"><param key="taz_id_start" value="110110412"/><param key="taz_id_end" value="110110123"/></trip>
    <trip id="100008160_100008160_330_1" depart="105778" fromTaz="4611886" toTaz="146911405#2" type="medium_passenger_gas"><param key="taz_id_start" value="110100524"/><param key="taz_id_end" value="110912011"/></trip>
    <trip id="100064536_100064536_325_1" depart="105846" fromTaz="274754088#0" toTaz="344594962" type="small_passenger_gas"><param key="taz_id_start" value="110100814"/><param key="taz_id_end" value="110110112"/></trip>
    <trip id="100010005_100010005_329_1" depart="105849" fromTaz="153698391" toTaz="154381219#0" type="small_passenger_gas"><param key="taz_id_start" value="110100322"/><param key="taz_id_end" value="110211621"/></trip>
    <trip id="100021879_100021879_326_0" depart="105859" fromTaz="78298215#0" toTaz="274754088#0" type="medium_passenger_gas"><param key="taz_id_start" value="110100322"/><param key="taz_id_end" value="110100814"/></trip>
    <trip id="100002691_100002691_323_0" depart="105876" fromTaz="-48303485#3" toTaz="274754088#0" type="small_passenger_gas"><param key="taz_id_start" value="110110513"/><param key="taz_id_end" value="110100814"/></trip>
    <trip id="100056184_100056184_318_1" depart="105884" fromTaz="4616595" toTaz="312176585#0" type="small_passenger_gas"><param key="taz_id_start" value="110110412"/><param key="taz_id_end" value="110110123"/></trip>
    <trip id="100051785_100051785_327_0" depart="105934" fromTaz="274754088#0" toTaz="-169999355#2" type="medium_passenger_gas"><param key="taz_id_start" value="110109921"/><param key="taz_id_end" value="110110212"/></trip>
    <trip id="100057497_100057497_325_1" depart="106073" fromTaz="-25294729#0" toTaz="-33177962#3" type="medium_passenger_gasoline"><param key="taz_id_start" value="110110111"/><param key="taz_id_end" value="110109823"/></trip>
    <trip id="100051785_100051785_327_1" depart="106161" fromTaz="274754088#0" toTaz="-169999355#2" type="medium_passenger_gas"><param key="taz_id_start" value="110109921"/><param key="taz_id_end" value="110110212"/></trip>
    <trip id="100057497_100057497_325_0" depart="106192" fromTaz="-25294729#0" toTaz="-33177962#3" type="medium_passenger_gasoline"><param key="taz_id_start" value="110110111"/><param key="taz_id_end" value="110109823"/></trip>
    <trip id="100058732_100058732_336_0" depart="106201" fromTaz="4611886" toTaz="169195795#2" type="small_passenger_gas"><param key="taz_id_start" value="110100524"/><param key="taz_id_end" value="110110212"/></trip>
    <trip id="100057089_100057089_328_1" depart="106208" fromTaz="274754088#0" toTaz="146911405#2" type="small_passenger_gasoline"><param key="taz_id_start" value="110100915"/><param key="taz_id_end" value="110912011"/></trip>
    <trip id="100010005_100010005_329_0" depart="106235" fromTaz="153698391" toTaz="154381219#0" type="small_passenger_gas"><param key="taz_id_start" value="110100322"/><param key="taz_id_end" value="110211621"/></trip>
    <trip id="100021879_100021879_326_1" depart="106240" fromTaz="78298215#0" toTaz="274754088#0" type="medium_passenger_gas"><param key="taz_id_start" value="110100322"/><param key="taz_id_end" value="110100814"/></trip>
    <trip id="100024052_100024052_336_0" depart="106244" fromTaz="4610355#0" toTaz="24968394#0" type="small_passenger_gas"><param key="taz_id_start" value="110110013"/><param key="taz_id_end" value="110311023"/></trip>
    <trip id="100061615_100061615_333_0" depart="106269" fromTaz="78298215#0" toTaz="-373389574#4" type="small_passenger_gas"><param key="taz_id_start" value="110100322"/><param key="taz_id_end" value="110311021"/></trip>
    <trip id="100008160_100008160_330_0" depart="106286" fromTaz="4611886" toTaz="146911405#2" type="medium_passenger_gas"><param key="taz_id_start" value="110100524"/><param key="taz_id_end" value="110912011"/></trip>
    <trip id="100013659_100013659_335_1" depart="106332" fromTaz="286774655#0" toTaz="274754088#0" type="small_passenger_gas"><param key="taz_id_start" value="110100222"/><param key="taz_id_end" value="110100814"/></trip>
    <trip id="100057089_100057089_328_0" depart="106373" fromTaz="274754088#0" toTaz="146911405#2" type="small_passenger_gasoline"><param key="taz_id_start" value="110100915"/><param key="taz_id_end" value="110912011"/></trip>
    <trip id="100043417_100043417_336_1" depart="106411" fromTaz="492340367" toTaz="153698391" type="small_passenger_gas"><param key="taz_id_start" value="110110214"/><param key="taz_id_end" value="110100321"/></trip>
    <trip id="100024052_100024052_336_1" depart="106428" fromTaz="4610355#0" toTaz="24968394#0" type="small_passenger_gas"><param key="taz_id_start" value="110110013"/><param key="taz_id_end" value="110311023"/></trip>
    <trip id="100063692_100063692_340_1" depart="106454" fromTaz="4068078#0" toTaz="274754088#0" type="medium_passenger_gas"><param key="taz_id_start" value="110211811"/><param key="taz_id_end" value="110100811"/></trip>
    <trip id="100055685_100055685_333_1" depart="106471" fromTaz="-24803495#2" toTaz="24968394#0" type="small_passenger_gas"><param key="taz_id_start" value="110110423"/><param key="taz_id_end" value="110311013"/></trip>
    <trip id="100050953_100050953_334_0" depart="106558" fromTaz="179780067" toTaz="146911405#2" type="medium_passenger_gas"><param key="taz_id_start" value="110110322"/><param key="taz_id_end" value="110912011"/></trip>
    <trip id="100061615_100061615_333_1" depart="106571" fromTaz="78298215#0" toTaz="-373389574#4" type="small_passenger_gas"><param key="taz_id_start" value="110100322"/><param key="taz_id_end" value="110311021"/></trip>
    <trip id="100012146_100012146_343_0" depart="106584" fromTaz="4773465#0" toTaz="-710761407#1" type="small_passenger_gasoline"><param key="taz_id_start" value="110110111"/><param key="taz_id_end" value="110110312"/></trip>
    <trip id="100050580_100050580_333_0" depart="106638" fromTaz="-84960597#3" toTaz="4611886" type="small_passenger_gas"><param key="taz_id_start" value="110110013"/><param key="taz_id_end" value="110705611"/></trip>
    <trip id="100043417_100043417_336_0" depart="106648" fromTaz="492340367" toTaz="153698391" type="small_passenger_gas"><param key="taz_id_start" value="110110214"/><param key="taz_id_end" value="110100321"/></trip>
    <trip id="100050953_100050953_334_1" depart="106673" fromTaz="179780067" toTaz="146911405#2" type="medium_passenger_gas"><param key="taz_id_start" value="110110322"/><param key="taz_id_end" value="110912011"/></trip>
    <trip id="100058696_100058696_344_1" depart="106689" fromTaz="-23386525#2" toTaz="-4611886" type="small_passenger_gas"><param key="taz_id_start" value="110110515"/><param key="taz_id_end" value="110201711"/></trip>
    <trip id="100013659_100013659_335_0" depart="106716" fromTaz="286774655#0" toTaz="274754088#0" type="small_passenger_gas"><param key="taz_id_start" value="110100222"/><param key="taz_id_end" value="110100814"/></trip>
    <trip id="100040283_100040283_336_0" depart="106718" fromTaz="-4610608" toTaz="310172796#0" type="small_passenger_gas"><param key="taz_id_start" value="110110323"/><param key="taz_id_end" value="110211516"/></trip>
    <trip id="100056589_100056589_343_0" depart="106718" fromTaz="-566764345" toTaz="-4597334#2" type="small_passenger_gas"><param key="taz_id_start" value="110110122"/><param key="taz_id_end" value="110100522"/></trip>
    <trip id="100063692_100063692_340_0" depart="106719" fromTaz="4068078#0" toTaz="274754088#0" type="medium_passenger_gas"><param key="taz_id_start" value="110211811"/><param key="taz_id_end" value="110100811"/></trip>
    <trip id="100055685_100055685_333_0" depart="106751" fromTaz="-24803495#2" toTaz="24968394#0" type="small_passenger_gas"><param key="taz_id_start" value="110110423"/><param key="taz_id_end" value="110311013"/></trip>
    <trip id="100012146_100012146_343_1" depart="106761" fromTaz="4773465#0" toTaz="-710761407#1" type="small_passenger_gasoline"><param key="taz_id_start" value="110110111"/><param key="taz_id_end" value="110110312"/></trip>
    <trip id="100058732_100058732_336_1" depart="106787" fromTaz="4611886" toTaz="169195795#2" type="small_passenger_gas"><param key="taz_id_start" value="110100524"/><param key="taz_id_end" value="110110212"/></trip>
    <trip id="100050580_100050580_333_1" depart="106806" fromTaz="-84960597#3" toTaz="4611886" type="small_passenger_gas"><param key="taz_id_start" value="110110013"/><param key="taz_id_end" value="110705611"/></trip>
    <trip id="100021747_100021747_346_0" depart="106821" fromTaz="78298215#0" toTaz="4611886" type="small_passenger_gas"><param key="taz_id_start" value="110100322"/><param key="taz_id_end" value="110100521"/></trip>
    <trip id="100021747_100021747_346_1" depart="106851" fromTaz="78298215#0" toTaz="4611886" type="small_passenger_gas"><param key="taz_id_start" value="110100322"/><param key="taz_id_end" value="110100521"/></trip>
    <trip id="100061244_100061244_344_1" depart="106867" fromTaz="78298215#0" toTaz="-23755718#3" type="small_passenger_gas"><param key="taz_id_start" value="110100321"/><param key="taz_id_end" value="110110321"/></trip>
    <trip id="100042353_100042353_343_1" depart="106892" fromTaz="-131650081#5" toTaz="-4611869#2" type="small_passenger_diesel"><param key="taz_id_start" value="110100713"/><param key="taz_id_end" value="110201712"/></trip>
    <trip id="100041752_100041752_346_0" depart="106898" fromTaz="286774655#0" toTaz="-9657820#0" type="medium_passenger_gasoline"><param key="taz_id_start" value="110100224"/><param key="taz_id_end" value="110100521"/></trip>
    <trip id="100024979_100024979_348_1" depart="106904" fromTaz="-24241762#2" toTaz="43159545#0" type="small_passenger_gas"><param key="taz_id_start" value="110110023"/><param key="taz_id_end" value="110110113"/></trip>
    <trip id="100049243_100049243_347_0" depart="106913" fromTaz="4615546#1" toTaz="4782523#0" type="small_passenger_gas"><param key="taz_id_start" value="110110512"/><param key="taz_id_end" value="110311111"/></trip>
    <trip id="100047207_100047207_346_0" depart="106931" fromTaz="-24684997#0" toTaz="195430957#0" type="small_passenger_gas"><param key="taz_id_start" value="110109913"/><param key="taz_id_end" value="110110424"/></trip>
    <trip id="100047207_100047207_346_1" depart="106938" fromTaz="-24684997#0" toTaz="195430957#0" type="small_passenger_gas"><param key="taz_id_start" value="110109913"/><param key="taz_id_end" value="110110424"/></trip>
    <trip id="100062684_100062684_343_0" depart="106940" fromTaz="286774655#0" toTaz="-202156991#2" type="small_passenger_gas"><param key="taz_id_start" value="110100222"/><param key="taz_id_end" value="110110213"/></trip>
    <trip id="100040283_100040283_336_1" depart="106950" fromTaz="-4610608" toTaz="310172796#0" type="small_passenger_gas"><param key="taz_id_start" value="110110323"/><param key="taz_id_end" value="110211516"/></trip>
    <trip id="100019931_100019931_346_1" depart="106952" fromTaz="-16571799#3" toTaz="312176585#0" type="medium_passenger_gas"><param key="taz_id_start" value="110109933"/><param key="taz_id_end" value="110110123"/></trip>
    <trip id="100030067_100030067_346_1" depart="106961" fromTaz="-4615599#6" toTaz="169195795#2" type="small_passenger_gas"><param key="taz_id_start" value="110110515"/><param key="taz_id_end" value="110110212"/></trip>
    <trip id="100011970_100011970_350_0" depart="106990" fromTaz="4611886" toTaz="4782523#0" type="small_passenger_gas"><param key="taz_id_start" value="110100524"/><param key="taz_id_end" value="110310824"/></trip>
    <trip id="100055371_100055371_350_1" depart="106999" fromTaz="4597254#0" toTaz="99729383#4" type="small_passenger_gas"><param key="taz_id_start" value="110109912"/><param key="taz_id_end" value="111114923"/></trip>
    <trip id="100058696_100058696_344_0" depart="107040" fromTaz="-23386525#2" toTaz="-4611886" type="small_passenger_gas"><param key="taz_id_start" value="110110515"/><param key="taz_id_end" value="110201711"/></trip>
    <trip id="100007433_100007433_346_0" depart="107052" fromTaz="73310502#0" toTaz="4597334#0" type="small_passenger_gas"><param key="taz_id_start" value="110110021"/><param key="taz_id_end" value="110100521"/></trip>
    <trip id="100022534_100022534_345_1" depart="107072" fromTaz="107747046#0" toTaz="146911405#2" type="small_passenger_gas"><param key="taz_id_start" value="110110411"/><param key="taz_id_end" value="110912011"/></trip>
    <trip id="100062684_100062684_343_1" depart="107092" fromTaz="286774655#0" toTaz="-202156991#2" type="small_passenger_gas"><param key="taz_id_start" value="110100222"/><param key="taz_id_end" value="110110213"/></trip>
    <trip id="100019931_100019931_346_0" depart="107138" fromTaz="-16571799#3" toTaz="312176585#0" type="medium_passenger_gas"><param key="taz_id_start" value="110109933"/><param key="taz_id_end" value="110110123"/></trip>
    <trip id="100042353_100042353_343_0" depart="107144" fromTaz="-131650081#5" toTaz="-4611869#2" type="small_passenger_diesel"><param key="taz_id_start" value="110100713"/><param key="taz_id_end" value="110201712"/></trip>
    <trip id="100043287_100043287_341_0" depart="107144" fromTaz="37289167#0" toTaz="-562707499" type="small_passenger_gas"><param key="taz_id_start" value="110100514"/><param key="taz_id_end" value="110110112"/></trip>
    <trip id="100059996_100059996_349_0" depart="107145" fromTaz="-297373653#3" toTaz="37226923" type="medium_passenger_gas"><param key="taz_id_start" value="110100712"/><param key="taz_id_end" value="111114721"/></trip>
    <trip id="100040594_100040594_344_0" depart="107150" fromTaz="295445243" toTaz="-4597334#2" type="medium_passenger_gas"><param key="taz_id_start" value="110110122"/><param key="taz_id_end" value="110100522"/></trip>
    <trip id="100059996_100059996_349_1" depart="107153" fromTaz="-297373653#3" toTaz="37226923" type="medium_passenger_gas"><param key="taz_id_start" value="110100712"/><param key="taz_id_end" value="111114721"/></trip>
    <trip id="100022534_100022534_345_0" depart="107166" fromTaz="107747046#0" toTaz="146911405#2" type="small_passenger_gas"><param key="taz_id_start" value="110110411"/><param key="taz_id_end" value="110912011"/></trip>
    <trip id="100010628_100010628_352_1" depart="107170" fromTaz="24243245#2" toTaz="274754088#0" type="small_passenger_gas"><param key="taz_id_start" value="110110411"/><param key="taz_id_end" value="110100814"/></trip>
    <trip id="100061244_100061244_344_0" depart="107185" fromTaz="78298215#0" toTaz="-23755718#3" type="small_passenger_gas"><param key="taz_id_start" value="110100321"/><param key="taz_id_end" value="110110321"/></trip>
    <trip id="100020663_100020663_354_0" depart="107194" fromTaz="274754088#0" toTaz="37289167#0" type="medium_passenger_gas"><param key="taz_id_start" value="110109832"/><param key="taz_id_end" value="110100512"/></trip>
    <trip id="100064536_100064536_350_0" depart="107198" fromTaz="344594962" toTaz="274754088#0" type="small_passenger_gas"><param key="taz_id_start" value="110110112"/><param key="taz_id_end" value="110100814"/></trip>
    <trip id="100043287_100043287_341_1" depart="107216" fromTaz="37289167#0" toTaz="-562707499" type="small_passenger_gas"><param key="taz_id_start" value="110100514"/><param key="taz_id_end" value="110110112"/></trip>