<routes xmlns:xsi="http://www.w3.org/2001/XMLSchema-instance" xsi:noNamespaceSchemaLocation="http://sumo.dlr.de/xsd/routes_file.xsd">
    <flow id="Siemensbahn1" begin="97344" period="600" type="train">
        <route edges="SBHF1 SB09 SBDS1 SB01 SBGF1 SB03 SBSS1 SB05 SBWW1 SB07 SBJH1"/>
        <stop busStop="SBHF1" duration="10"/>
        <stop busStop="SBDS1" duration="10"/>
        <stop busStop="SBGF1" duration="10"/>
        <stop busStop="SBSS1" duration="10"/>
        <stop busStop="SBWW1" duration="10"/>
        <stop busStop="SBJH1" duration="10"/>
    </flow>
    <flow id="Siemensbahn2" begin="97344" period="600" type="train">
        <route edges="SBJH2 SB08 SBWW2 SB06 SBSS2 SB04 SBGF2 SB02 SBDS2 SB10 SBHF2"/>
        <stop busStop="SBJH2" duration="10"/>
        <stop busStop="SBWW2" duration="10"/>
        <stop busStop="SBSS2" duration="10"/>
        <stop busStop="SBGF2" duration="10"/>
        <stop busStop="SBDS2" duration="10"/>
        <stop busStop="SBHF2" duration="10"/>
    </flow>
</routes>
