<?xml version="1.0" encoding="UTF-8"?>
<routes xmlns:xsi="http://www.w3.org/2001/XMLSchema-instance" xsi:noNamespaceSchemaLocation="http://sumo.dlr.de/xsd/routes_file.xsd">
    <flow id="M36_1" begin="90344" period="300" type="bus">
        <route edges="31719426#0 4581891#2 125190489#0 -19898260#6 19898258#0 123485306#0 -19605964#1 19605963#0 19605963#5 -4581895 4581896#0 4553267#0 4553267#2 4553267#5 58533301#0 -6074347 -4581882#3 -4581882#0 -48273142#0 -4581880#6 -4581880#5 -4581880#4 -4581880#3 -121024653#10 -605722883#1 -148626871#2 4978664#0 171733375#0 171733375#3 171733375#6 171733375#10 171733375#13 125646619#0 125646623#0 5134017#0 125646613#3 125646613#6 669777847 -60219322#4 -60219337#15 -60219337#12 -60219337#10 -60219337#9 -60219337#5 -60219337#1 -123485307 23029915#0 23029915#2 332573585#0 57387371 57387200#0 57387247 4453034#0 100100954#0 462624002 395497859#0 28502754#0 333500494#0 5095112#0 5095112#3 5095112#5 56362661#0"/>
        <stop busStop="070101000528_1" duration="10"/>
        <stop busStop="070101000529_0" duration="10"/>
        <stop busStop="070101000602_0" duration="10"/>
        <stop busStop="070101000904_0" duration="10"/>
        <stop busStop="070101001078_0" duration="10"/>
        <stop busStop="070101001098_0" duration="10"/>
        <stop busStop="070101000849_0" duration="10"/>
        <stop busStop="070101001916_0" duration="10"/>
        <stop busStop="070101003536_0" duration="10"/>
        <stop busStop="070101001470_0" duration="10"/>
        <stop busStop="070101001556_0" duration="10"/>
        <stop busStop="070101002077_0" duration="10"/>
        <stop busStop="070101002436_0" duration="10"/>
        <stop busStop="070101002438_0" duration="10"/>
        <stop busStop="070101002728_0" duration="10"/>
        <stop busStop="070101000745_0" duration="10"/>
        <stop busStop="070101001591_0" duration="10"/>
        <stop busStop="070101001697_0" duration="10"/>
        <stop busStop="070101003331_0" duration="10"/>
        <stop busStop="070101000517_0" duration="10"/>
    </flow>
    <flow id="M36_2" begin="90344" period="300" type="bus">
        <route edges="5095110#2 760803015#0 760803015#2 760803015#5 760803015#6 333500495#0 4453033#0 31697122#0 30818832#1 457410834#1 310096987#1 33066934#0 25394870#0 25394871 57387202 37535101#0 4797965#0 48273132#0 23029978#0 60219337#0 60219337#3 60219337#6 60219337#10 60219337#11 60219337#13 60219322#0 523376847#0 48273134#0 48273134#3 48273134#7 338687115#0 704271136#0 18830951#0 18830951#10 18830951#14 57685645#0 148626871#0 605722883#0 121024653#0 4581880#0 4581880#4 4581880#5 4581880#6 4581880#7 48273142#1 4581882#1 57686462#0 58533302#0 58533302#3 58533302#7 4581897#0 4581895 19605961#0 338687113#0 19605964#0 19898259#0 19898260#0 4581892#0 338687114#0"/>
        <stop busStop="070101000522_0" duration="10"/>
        <stop busStop="070101000523_0" duration="10"/>
        <stop busStop="070101001951_0" duration="10"/>
        <stop busStop="070101001602_0" duration="10"/>
        <stop busStop="070101000768_0" duration="10"/>
        <stop busStop="070101002041_0" duration="10"/>
        <stop busStop="070101002045_0" duration="10"/>
        <stop busStop="070101002047_0" duration="10"/>
        <stop busStop="070101002025_0" duration="10"/>
        <stop busStop="070101002026_0" duration="10"/>
        <stop busStop="070101002824_0" duration="10"/>
        <stop busStop="070101003529_0" duration="10"/>
        <stop busStop="070101001224_0" duration="10"/>
        <stop busStop="070101001398_0" duration="10"/>
        <stop busStop="070101002565_0" duration="10"/>
        <stop busStop="070101002588_0" duration="10"/>
        <stop busStop="070101002595_0" duration="10"/>
        <stop busStop="070101002614_0" duration="10"/>
        <stop busStop="070101000528_0" duration="10"/>
    </flow>
</routes>
