<edges>
    <!-- Created Elements -->
    <edge id="gneE2" from="26704452" numLanes="2" priority="-1" speed="13.89" to="2784054037">
        <lane index="0" allow="pedestrian" width="2.00"/>
        <lane index="1" disallow="pedestrian tram rail_urban rail rail_electric rail_fast ship"/>
    </edge>
</edges>
