<nodes>
    <!-- Rosenthaler Platz -->
    <join nodes="3918673954 2831135693 2831135694 2831135695 2831135696 1663957819 262476527 311718989 3836989061 588159289" id="rosenthaler_platz" type="traffic_light"/>

    <!--  -->
    <join nodes="1769589034 1769589073" type="priority"/>
    <join nodes="295586470 295586663" type="priority"/>
    <join nodes="295586662 29784949" type="priority"/>
    
    <!-- Torstr & Rosa Luxemburg -->
    <join nodes="262471375 343590422 3730313106 3730313113 3792553970 4592659093 3730313108 1468439357 1661140940" id="torstr_rosaluxemburg" type="traffic_light"/>
    <join nodes="29123430 3185223614 3730313097 3730313099 3730313103 3730313109 3730313111 3837028201 4592659109 4592659128 4592659129 98978100" id="torstr_rosaluxemburg2" type="traffic_light"/>
    <join nodes="1661927348 30731970" type="priority"/>
    
    <!--  -->
    <join nodes="1011319241 1011319291 12614600 1783286745 1783286747 1783286748 1783286749 1783286750 1783286751 1792333588 1792333589 1792333590 1792333594 1792333596 1792333600 1792333612 1792343134 1860618796 1860618817 1860618818 1860618820 1860618821 2831096651 2831096652 2831096653 2831096654 2831096655 29270276 29270294 29270295 7169320573 7169320574 7169320575 7169320576 7169320577 7169320578 7169320579 1792333620 1792333625 1792333626 1792343123 1792343124 1860618806 1860618807 1860618816 1860618822" tl="Landsberger_alle" type="traffic_light"/>
    <join nodes="1862786423 1862786424 1862786478 1631101170 1631101197 1631354257 1631354272 1631354273 1862786421 1862786422 1862786432 1862786438 1862786442 1862786475 1862786477 21432798 2831092404 2831092405 2831092406 2831092407 2831092408 2831092409 29123438 29221602 29221603 4577507911 595038793 595038812 6795798214 6795798215 6795798216 6795798217 6795798218 6795798219 6795798220 6795798221 6795798222 6795798223 6795798224 6795798225 6795798226" type="traffic_light"/>

    <!--  -->    
    <join nodes="7201124038 1828354157 1828354168 1828354183 1828366922 1828354122 1828354123 1828354135 1828354136 29794215 29794320 3198288572 3198288573 471801036 471801037 564123493 7201123993 7201123994 7201123997 7201124035 7201124036 7201124037 7201124047 7201124052 965845090 471801039 7201124048" type="traffic_light"/>

    <!--  -->    
    <joinExclude nodes="1512593362"/>
    <join nodes="3231374964 1828231459"/>
    <joinExclude nodes="4605644865"/>
    <join nodes="28373972 3513423889 3513425993"/>
    
    <!-- potsdamer platz -->    
    <joinExclude nodes="1711812145 1711812122"/>
    
    <!--  -->
    <join nodes="274288526 30734511 2831135670 29276014 29785113 339654554 339654560 525336246 5339285245 5339285247 474752196 1832589864 5339285239"/>

    <!--  -->
    <join nodes="1822518612 276589705 6518999456 2831140295" type="traffic_light"/>
    <join nodes="28151271 4377620181 2831135671" type="traffic_light"/>
    
    <!--  -->
    <join nodes="1615477687 482749136 1618828701 1618828717 1618828720 1631354287 1631354312 2831135684 2831135685 2831135688 2831135689 2831135690 2831135691 30731490 595038986 21432815 28794056 29123432 3274025415" type="traffic_light"/>
</nodes>
