<?xml version="1.0" encoding="UTF-8"?>
<!-- manual modifications for Spandau by Stefanie Schoene 2021-05-19 -->
<nodes version="1.9" xmlns:xsi="http://www.w3.org/2001/XMLSchema-instance" xsi:noNamespaceSchemaLocation="http://sumo.dlr.de/xsd/nodes_file.xsd">
    <!-- Created Elements -->
    <node id="gneJ2" type="priority" x="45716.02" y="44538.66"/>
    <!-- Changed Elements -->
    <node id="2408111743" x="45064.97"/>
    <node id="262091049" type="priority"/>
    <node id="26662466" tl="26662466" type="traffic_light"/>
    <node id="26785751" tl="26785751" type="traffic_light"/>
    <node id="cluster_26759725_3051210670_34780709" tl="cluster_26759725_3051210670_34780709" type="traffic_light"/>
    <node id="cluster_26759727_26759728_26759729_26759730_#2more" tl="cluster_26759727_26759728_26759729_26759730_#2more" type="traffic_light"/>
    <node id="cluster_4403887066_4403887080_4403887081" tl="cluster_4403887066_4403887080_4403887081" type="traffic_light"/>

    <!-- Changed Elements -->
    <node id="1783286749" tl="1783286749" type="traffic_light"/>
    <node id="2831135693" tl="2831135693" type="traffic_light"/>
</nodes>
