<?xml version="1.0" encoding="UTF-8"?>
<!-- manual modifications for Spandau by Stefanie Schoene 2021-05-19 -->
<nodes version="1.9" xmlns:xsi="http://www.w3.org/2001/XMLSchema-instance" xsi:noNamespaceSchemaLocation="http://sumo.dlr.de/xsd/nodes_file.xsd">
    <!-- Deleted Elements -->
    <delete id="6561995746"/>
    <!-- Created Elements -->
    <node id="gneJ2" type="priority" x="45716.02" y="44538.66"/>
    <!-- Changed Elements -->
    <node id="2408111743" x="45064.97"/>
    <node id="262091049" type="priority"/>
    <node id="26662466" tl="26662466" type="traffic_light"/>
    <node id="26785751" tl="26785751" type="traffic_light"/>
    <node id="cluster_26759725_3051210670_34780709" tl="cluster_26759725_3051210670_34780709" type="traffic_light"/>
    <node id="cluster_26759727_26759728_26759729_26759730_6603475852_6603475853" tl="cluster_26759727_26759728_26759729_26759730_6603475852_6603475853" type="traffic_light"/>
    <node id="cluster_4403887066_4403887080_4403887081" tl="cluster_4403887066_4403887080_4403887081" type="traffic_light"/>

    <!-- Changed Elements -->
    <node id="1783286749" tl="1783286749" type="traffic_light"/>
    <node id="243993451" tl="243993451"/>
    <node id="25662542" tl="25662542"/>
    <node id="25663498" tl="25663498"/>
    <node id="25663747" tl="25663747"/>
    <node id="26823001" tl="26823001"/>
    <node id="2831135693" tl="2831135693" type="traffic_light"/>
    <node id="3836987632" tl="3836987632"/>
    <node id="cluster_1011319241_1011319291_12614600_1783286745_1783286747_1783286750_1783286751_1792333600_1792343134_1860618796_2831096652_29270276_29270294_29270295_7169320573_7169320574_7169320575_7169320576_7169320577_7169320578_7169320579" tl="cluster_1011319241_1011319291_12614600_1783286745_1783286747_1783286750_1783286751_1792333600_1792343134_1860618796_2831096652_29270276_29270294_29270295_7169320573_7169320574_7169320575_7169320576_7169320577_7169320578_7169320579"/>
    <node id="cluster_12614681_1679221176_1679221177_1679221178_243856142_29266370_52599735" tl="cluster_12614681_1679221176_1679221177_1679221178_243856142_29266370_52599735"/>
    <node id="cluster_12614683_288267826_2917484598_29784919_598234402" tl="cluster_12614683_288267826_2917484598_29784919_598234402"/>
    <node id="cluster_1599974858_28794353" tl="cluster_1599974858_28794353"/>
    <node id="cluster_1631354272_1862786432_1862786438_21432798_29123438_29221602_29221603_6795798214_6795798215_6795798216_6795798217_6795798218_6795798219_6795798220_6795798221_6795798222_6795798223_6795798224_6795798225_6795798226" tl="cluster_1631354272_1862786432_1862786438_21432798_29123438_29221602_29221603_6795798214_6795798215_6795798216_6795798217_6795798218_6795798219_6795798220_6795798221_6795798222_6795798223_6795798224_6795798225_6795798226"/>
    <node id="cluster_1679204752_1679204753_28373611_29794181_29794182_29794183_401238685_401238686" tl="cluster_1679204752_1679204753_28373611_29794181_29794182_29794183_401238685_401238686"/>
    <node id="cluster_1679221141_1679221142_29271704_29271705" tl="cluster_1679221141_1679221142_29271704_29271705"/>
    <node id="cluster_1679221165_1679221167_1897287970_281817500_29266371_29266372_29266373_669893262_669893299_7166645736_7166645741" tl="cluster_1679221165_1679221167_1897287970_281817500_29266371_29266372_29266373_669893262_669893299_7166645736_7166645741"/>
    <node id="cluster_1803835405_2866993683_4603831443_51414512" tl="cluster_1803835405_2866993683_4603831443_51414512"/>
    <node id="cluster_1841629009_276585513_29804023_96516593" tl="cluster_1841629009_276585513_29804023_96516593"/>
    <node id="cluster_196725581_21487224_29219437_29219438" tl="cluster_196725581_21487224_29219437_29219438"/>
    <node id="cluster_20246105_20246107_598284527" tl="cluster_20246105_20246107_598284527"/>
    <node id="cluster_21432799_21432802_29221583_29221586" tl="cluster_21432799_21432802_29221583_29221586"/>
    <node id="cluster_21432801_2938442114_735967920_735967926" tl="cluster_21432801_2938442114_735967920_735967926"/>
    <node id="cluster_2442349449_26858261_3868543773" tl="cluster_2442349449_26858261_3868543773"/>
    <node id="cluster_2524227970_3836987624_4913100485_4913100486_6990837516" tl="cluster_2524227970_3836987624_4913100485_4913100486_6990837516"/>
    <node id="cluster_260658026_673868193" tl="cluster_260658026_673868193"/>
    <node id="cluster_262469034_29123671_29123672_6795935360_6795935361_6795935362_967017837_967017877" tl="cluster_262469034_29123671_29123672_6795935360_6795935361_6795935362_967017837_967017877"/>
    <node id="cluster_26682662_26708007" tl="cluster_26682662_26708007"/>
    <node id="cluster_26703741_26754340" tl="cluster_26703741_26754340"/>
    <node id="cluster_26708010_26869281_350295984" tl="cluster_26708010_26869281_350295984"/>
    <node id="cluster_26725940_26749240_26749248_26749608" tl="cluster_26725940_26749240_26749248_26749608"/>
    <node id="cluster_26747610_26747611_26747612_26747618" tl="cluster_26747610_26747611_26747612_26747618"/>
    <node id="cluster_26754213_26754288_26754347_26754348" tl="cluster_26754213_26754288_26754347_26754348"/>
    <node id="cluster_26870674_26873454_3463621768_3463621770" tl="cluster_26870674_26873454_3463621768_3463621770"/>
    <node id="cluster_271649075_4308915673" tl="cluster_271649075_4308915673"/>
    <node id="cluster_27195297_29421277" tl="cluster_27195297_29421277"/>
    <node id="cluster_28373650_29271390_29271391_29271392" tl="cluster_28373650_29271390_29271391_29271392"/>
    <node id="cluster_288268136_29796813_3577459652_3577459655_3577459656_5892372647_5892372648" tl="cluster_288268136_29796813_3577459652_3577459655_3577459656_5892372647_5892372648"/>
    <node id="cluster_29271354_7166645751_7166645756_732725634" tl="cluster_29271354_7166645751_7166645756_732725634"/>
    <node id="cluster_29275853_3242035261_3242035262" tl="cluster_29275853_3242035261_3242035262"/>
    <node id="cluster_29785147_385246995" tl="cluster_29785147_385246995"/>
    <node id="cluster_29794142_3577459651_5892372636_5892372637" tl="cluster_29794142_3577459651_5892372636_5892372637"/>
    <node id="cluster_29794218_29794219" tl="cluster_29794218_29794219"/>
    <node id="cluster_964750391_971891590" tl="cluster_964750391_971891590"/>
</nodes>
