<connections>
    <!-- Created Elements -->
    <connection from="-37764670#9" fromLane="1" to="gneE2" toLane="1" />
    <connection from="-37764670#9" fromLane="2" to="gneE2" toLane="1" />
    <connection from="4381554#0" fromLane="2" to="gneE2" toLane="1" />
    <connection from="gneE2" fromLane="1" to="-25418282" toLane="1" />

    <!-- Deleted Elements -->
    <delete from="25360667#0" fromLane="2" to="337285330#0" toLane="1"/>
    <delete from="28818696#0" fromLane="2" to="224880788" toLane="1"/>
    <delete from="4446475" fromLane="1" to="4495225" toLane="0"/>
    <delete from="4446475" fromLane="2" to="226972806" toLane="1"/>
    <!-- Created Elements -->
    <connection from="-13863062#1" fromLane="1" to="-475519856#1" toLane="1" />
    <connection from="-13863062#1" fromLane="2" to="-475519856#1" toLane="1" />
    <connection from="-25041360#2" fromLane="1" to="531952547" toLane="1" />
    <connection from="-25041360#2" fromLane="2" to="531952547" toLane="1" />
    <connection from="25360667#0" fromLane="1" to="337285330#0" toLane="1" />
    <connection from="25360667#0" fromLane="2" to="4615615#0" toLane="1" />
    <connection from="28362838#0" fromLane="1" to="-475519856#1" toLane="1" />
    <connection from="28818696#0" fromLane="1" to="224880788" toLane="1" />
    <connection from="28818696#0" fromLane="2" to="147557794#0" toLane="0" />
    <connection from="4446475" fromLane="1" to="226972806" toLane="1" />
    <connection from="4446475" fromLane="2" to="4495225" toLane="0" />
    <connection from="461905068#0" fromLane="1" to="531952547" toLane="1" />
    <connection from="461905068#0" fromLane="2" to="531952547" toLane="1" />

    <!-- Created Elements -->
    <connection from="304196461" fromLane="0" to="42816697#0" toLane="2" />
    <connection from="39839437#0" fromLane="1" to="32937788#0" toLane="2" />
    <connection from="4484276" fromLane="0" to="405884014#0" toLane="1" />

    <!-- Created Elements -->
    <connection from="-24916008" fromLane="1" to="4410310#0" toLane="2" />
    <connection from="151465251#4" fromLane="1" to="31521841#0" toLane="2" />
    <connection from="203910771#3" fromLane="1" to="4410310#0" toLane="2" />
    <connection from="24160797#1" fromLane="1" to="-5364047#2" toLane="2" />
    <connection from="27944009#7" fromLane="1" to="24540254#0" toLane="2" />
    <connection from="281617571" fromLane="1" to="24753572#0" toLane="2" />
    <connection from="4616178#18" fromLane="1" to="148093695" toLane="2" />
    <connection from="761308715" fromLane="1" to="675103981#0" toLane="2" />

    <!-- Deleted Elements -->
    <delete from="-762568153" fromLane="1" to="144960908#0" toLane="2"/>
    <delete from="144960908#0" fromLane="2" to="123955029#0" toLane="2"/>
    <delete from="172248642#0" fromLane="2" to="4631949" toLane="2"/>
    <delete from="450221293" fromLane="1" to="4631949" toLane="2"/>
    <delete from="4631949" fromLane="2" to="-144960908#3" toLane="2"/>
    <delete from="4637741#5" fromLane="1" to="4631949" toLane="2"/>
    <delete from="572456085#0" fromLane="2" to="144960908#0" toLane="2"/>
    <delete from="68314925#8" fromLane="2" to="68314926" toLane="2"/>
    <delete from="68314926" fromLane="2" to="172439811#4" toLane="2"/>
    <delete from="68314926" fromLane="2" to="389530584" toLane="1"/>
    <delete from="68314926" fromLane="2" to="-4637741#9" toLane="1"/>
    <delete from="82456839#9" fromLane="1" to="144960908#0" toLane="2"/>
    <!-- Created Elements -->
    <connection from="-762568153" fromLane="1" to="144960908#0" toLane="3" />
    <connection from="144960908#0" fromLane="2" to="156239889#8" toLane="0" />
    <connection from="144960908#0" fromLane="3" to="123955029#0" toLane="2" />
    <connection from="156239891#1" fromLane="0" to="123955029#0" toLane="2" />
    <connection from="172248642#0" fromLane="2" to="4631949" toLane="3" />
    <connection from="31910525#0" fromLane="3" to="454719091#0" toLane="2" />
    <connection from="450221293" fromLane="1" to="4631949" toLane="3" />
    <connection from="4631949" fromLane="3" to="-144960908#3" toLane="2" />
    <connection from="4637741#5" fromLane="1" to="4631949" toLane="3" />
    <connection from="572456085#0" fromLane="2" to="144960908#0" toLane="3" />
    <connection from="68314925#8" fromLane="2" to="68314926" toLane="3" />
    <connection from="68314925#8" fromLane="2" to="156239889#8" toLane="0" />
    <connection from="68314926" fromLane="3" to="172439811#4" toLane="2" />
    <connection from="68314926" fromLane="3" to="389530584" toLane="1" />
    <connection from="68314926" fromLane="3" to="-4637741#9" toLane="1" />
    <connection from="82456839#9" fromLane="1" to="144960908#0" toLane="3" />

</connections>
