<connections>
    <!-- Rosenthaler Platz -->
    <!--<connection from="312651884#7" fromLane="1" to="312645512#1" toLane="1"/>
    <connection from="312651884#7" fromLane="2" to="169717722#0" toLane="1"/>
    <connection from="312651884#7" fromLane="3" to="169717722#0" toLane="2"/>
    <connection from="312651884#7" fromLane="3" to="46138138#0" toLane="1"/>
    <connection from="312651884#7" fromLane="3" to="312654701#0" toLane="3"/>
    <connection from="-16571799#2" fromLane="1" to="46138138#0" toLane="1"/> -->
    <connection from="24242440#0" fromLane="1" to="46138138#0" toLane="1"/>
    <connection from="24242440#0" fromLane="1" to="312654701#0" toLane="1"/>
    <connection from="24242440#0" fromLane="2" to="312654701#0" toLane="2"/>
    <connection from="24242440#0" fromLane="3" to="312645512#1" toLane="1"/>
    <connection from="4610364#0" fromLane="1" to="312654701#0" toLane="1"/>
    <connection from="4610364#0" fromLane="1" to="312645512#1" toLane="1"/>
    <connection from="4610364#0" fromLane="2" to="312645512#1" toLane="2"/>
    <connection from="4610364#0" fromLane="3" to="169717722#0" toLane="2"/>
    <!--<connection from="4610364#0" fromLane="4" to="16571799#0" toLane="1"/> -->
    <connection from="-312645512#2" fromLane="1" to="169717722#0" toLane="1"/>
    <connection from="-312645512#2" fromLane="1" to="46138138#0" toLane="1"/>
    <connection from="-312645512#2" fromLane="2" to="312654701#0" toLane="2"/>
    <connection from="-312645512#2" fromLane="3" to="312654701#0" toLane="3"/>
    <connection from="-312645512#2" fromLane="3" to="312645512#1" toLane="2"/>
    
    <!-- Eldenaer Str -->
    <connection from="439025650#0" to="-691271973#1" fromLane="1" toLane="1"/>
    <connection from="439025650#0" to="-26136571#7" fromLane="1" toLane="1"/>
    <connection from="439025650#0" to="-691271973#1" fromLane="2" toLane="2"/>
    <connection from="439025650#0" to="-26136571#7" fromLane="3" toLane="2"/>
    <connection from="439025650#0" to="-439025657#2" fromLane="3" toLane="1"/>
    
    <!-- Landsberger Alle -->
    <connection from="458998067#0" to="4685638#0" fromLane="1" toLane="1"/>
    <connection from="458998067#0" to="656241856#0" fromLane="1" toLane="1"/>
    <connection from="458998067#0" to="4615457#0" fromLane="1" toLane="1"/>
    <connection from="458998067#0" to="4685638#0" fromLane="2" toLane="2"/>
    <connection from="458998067#0" to="656241856#0" fromLane="2" toLane="2"/>
    <connection from="458998067#0" to="656241856#0" fromLane="3" toLane="3"/>
    <connection from="458998067#0" to="656241856#0" fromLane="4" toLane="4"/>
    <connection from="458998067#0" to="4615457#0" fromLane="5" toLane="3"/>
    <connection from="458998067#0" to="4615780#0" fromLane="5" toLane="4"/>
    <connection from="288762496#0" to="656241856#0" fromLane="1" toLane="1"/>
    <connection from="288762496#0" to="4615457#0" fromLane="1" toLane="1"/>
    <connection from="288762496#0" to="4615780#0" fromLane="1" toLane="1"/>
    <connection from="288762496#0" to="656241856#0" fromLane="2" toLane="2"/>
    <connection from="288762496#0" to="4615457#0" fromLane="3" toLane="2"/>
    <connection from="288762496#0" to="4615457#0" fromLane="4" toLane="3"/>
    <connection from="288762496#0" to="4615780#0" fromLane="5" toLane="4"/>
    <connection from="288762496#0" to="4685638#0" fromLane="5" toLane="4"/>
    <connection from="38575179#0" to="4615457#0" fromLane="1" toLane="1"/>
    <connection from="38575179#0" to="4615780#0" fromLane="1" toLane="1"/>
    <connection from="38575179#0" to="4685638#0" fromLane="1" toLane="1"/>
    <connection from="38575179#0" to="4615457#0" fromLane="2" toLane="2"/>
    <connection from="38575179#0" to="4615780#0" fromLane="2" toLane="2"/>
    <connection from="38575179#0" to="4615780#0" fromLane="3" toLane="3"/>
    <connection from="38575179#0" to="4615780#0" fromLane="4" toLane="4"/>
    <connection from="38575179#0" to="4685638#0" fromLane="5" toLane="4"/>
    <connection from="38575179#0" to="656241856#0" fromLane="5" toLane="4"/>
    
    <!-- Kopernikusstr 
    <connection from="-25376552#4" to="25376554#0" fromLane="1" toLane="0"/>
    <connection from="-25376552#4" to="102773708#0" fromLane="1" toLane="2"/>
    <connection from="-25376552#4" to="102773668#0" fromLane="1" toLane="3"/>-->
    <connection from="154381219#0" to="102773668#0" fromLane="1" toLane="2"/>
    <connection from="61737905#0" to="102773708#0" fromLane="1" toLane="1"/>
    <connection from="61737905#0" to="25376552#2" fromLane="1" toLane="1"/>
    <connection from="61737905#0" to="25376552#2" fromLane="2" toLane="1"/>
    <connection from="61737905#0" to="102773708#0" fromLane="2" toLane="2"/>
    <connection from="61737905#0" to="102773708#0" fromLane="3" toLane="3"/>
    <connection from="37287190#0" to="-154381219#6" fromLane="1" toLane="1"/>
    <connection from="37287190#0" to="102773668#0" fromLane="1" toLane="1"/>
    <connection from="37287190#0" to="-154381219#6" fromLane="2" toLane="1"/>
    <connection from="37287190#0" to="102773668#0" fromLane="2" toLane="2"/>
    <connection from="37287190#0" to="102773668#0" fromLane="3" toLane="3"/>
    <connection from="30711172" to="25376552#2" fromLane="0" toLane="1"/>
    <connection from="30711172" to="10596872#2" fromLane="0" toLane="0"/>
    
    <!-- Kopernikusstr -->
    <connection from="299397170" to="299605821" fromLane="1" toLane="1"/>
    <connection from="299397170" to="299605821" fromLane="2" toLane="2"/>
    <connection from="299397170" to="299605821" fromLane="3" toLane="3"/>
    <connection from="299397170" to="299605821" fromLane="3" toLane="4"/>
    <connection from="299397170" to="299605821" fromLane="4" toLane="5"/>
    <connection from="299397170" to="299605821" fromLane="4" toLane="6"/>
    
    <connection from="299605821" to="4790839#0" fromLane="1" toLane="1"/>
    <connection from="299605821" to="4613112#0" fromLane="1" toLane="1"/>
    <connection from="299605821" to="187103792#0" fromLane="1" toLane="1"/>
    <connection from="299605821" to="4790839#0" fromLane="2" toLane="1"/>
    <connection from="299605821" to="4790839#0" fromLane="2" toLane="2"/>
    <connection from="299605821" to="4613112#0" fromLane="3" toLane="1"/>
    <connection from="299605821" to="4613112#0" fromLane="3" toLane="2"/>
    <connection from="299605821" to="4613112#0" fromLane="4" toLane="4"/>
    <connection from="299605821" to="187103792#0" fromLane="5" toLane="2"/>
    <connection from="299605821" to="187103792#0" fromLane="6" toLane="3"/>
    <connection from="299605821" to="26506567#0" fromLane="6" toLane="3"/>
    
    <connection from="305094628#0" to="4613112#0" fromLane="1" toLane="1"/>
    <connection from="305094628#0" to="187103792#0" fromLane="1" toLane="1"/>
    <connection from="305094628#0" to="26506567#0" fromLane="1" toLane="1"/>
    <connection from="305094628#0" to="4613112#0" fromLane="2" toLane="1"/>
    <connection from="305094628#0" to="4613112#0" fromLane="2" toLane="2"/>
    <connection from="305094628#0" to="187103792#0" fromLane="3" toLane="3"/>
    <connection from="305094628#0" to="187103792#0" fromLane="4" toLane="4"/>
    <connection from="305094628#0" to="26506567#0" fromLane="5" toLane="3"/>
    <connection from="305094628#0" to="4790839#0" fromLane="5" toLane="4"/>
    
    <connection from="296122995#1" to="187103792#0" fromLane="1" toLane="1"/>
    <connection from="296122995#1" to="26506567#0" fromLane="1" toLane="1"/>
    <connection from="296122995#1" to="4790839#0" fromLane="1" toLane="1"/>
    <connection from="296122995#1" to="187103792#0" fromLane="2" toLane="2"/>
    <connection from="296122995#1" to="26506567#0" fromLane="3" toLane="2"/>
    <connection from="296122995#1" to="26506567#0" fromLane="4" toLane="3"/>
    <connection from="296122995#1" to="4790839#0" fromLane="5" toLane="3"/>
    <connection from="296122995#1" to="4790839#0" fromLane="6" toLane="4"/>
    <connection from="296122995#1" to="4613112#0" fromLane="6" toLane="5"/>
    
    <connection from="189133035#0" to="26506567#0" fromLane="1" toLane="1"/>
    <connection from="189133035#0" to="4790839#0" fromLane="1" toLane="1"/>
    <connection from="189133035#0" to="4613112#0" fromLane="1" toLane="1"/>
    <connection from="189133035#0" to="26506567#0" fromLane="2" toLane="2"/>
    <connection from="189133035#0" to="4790839#0" fromLane="3" toLane="2"/>
    <connection from="189133035#0" to="4790839#0" fromLane="4" toLane="3"/>
    <connection from="189133035#0" to="4613112#0" fromLane="5" toLane="5"/>
    <connection from="189133035#0" to="187103792#0" fromLane="5" toLane="5"/>
    
    <!--<connection from="153454794#0" to="150478184#0" fromLane="0" toLane="0"/> -->
    <connection from="150201975" to="150178892#8" fromLane="0" toLane="0"/>
    <connection from="150201975" to="150201974" fromLane="0" toLane="0"/>
    
    <connection from="150178430#0" to="150178892#8" fromLane="0" toLane="0"/>
    
</connections>
