<tlLogics version="1.9" xmlns:xsi="http://www.w3.org/2001/XMLSchema-instance" xsi:noNamespaceSchemaLocation="http://sumo.dlr.de/xsd/tllogic_file.xsd">
    <!-- Deleted Elements -->
    <delete from="4446475" fromLane="1" to="4495225" toLane="0" linkIndex="0" tl="501547016"/>
    <delete from="4446475" fromLane="2" to="226972806" toLane="1" linkIndex="1" tl="501547016"/>
    <!-- Created Elements -->
    <!-- Changed Elements -->
    <tlLogic id="501547016" programID="0" >
        <phase duration="82" maxDur="50" minDur="5" state="GgGG"/>
        <phase duration="3" state="yyyy"/>
        <phase duration="5" state="rrrr"/>
    </tlLogic>
    <!-- Created Elements -->
    <connection from="4446475" fromLane="1" to="226972806" toLane="1" linkIndex="0" tl="501547016"/>
    <connection from="4446475" fromLane="2" to="4495225" toLane="0" linkIndex="1" tl="501547016"/>

    <!-- Changed Elements -->
    <tlLogic id="GS_26746308" programID="0" >
        <phase duration="27" maxDur="50" minDur="5" state="GGGGrrrrrrrrr"/>
        <phase duration="3" state="yyyyrrrrrrrrr"/>
        <phase duration="27" maxDur="50" minDur="5" state="rrrGGGGGGrrrr"/>
        <phase duration="3" state="rrryyyyyyrrrr"/>
        <phase duration="27" maxDur="50" minDur="5" state="rrrrrrrrrGGGG"/>
        <phase duration="3" state="rrrrrrrrryyyy"/>
    </tlLogic>
    <!-- Created Elements -->
    <connection from="39839437#0" fromLane="1" to="32937788#0" toLane="2" linkIndex="5" tl="GS_26746308"/>
    <!-- Changed Elements -->
    <connection from="-102486168" fromLane="1" to="-4611869#18" toLane="1" linkIndex="9"/>
    <connection from="-102486168" fromLane="1" to="32937788#0" toLane="1" linkIndex="10"/>
    <connection from="-102486168" fromLane="2" to="32937788#0" toLane="4" linkIndex="11"/>
    <connection from="-102486168" fromLane="2" to="102486195" toLane="1" linkIndex="12"/>
    <connection from="39839437#0" fromLane="1" to="32937788#0" toLane="3" linkIndex="6"/>
    <connection from="39839437#0" fromLane="2" to="32937788#0" toLane="4" linkIndex="7"/>
    <connection from="39839437#0" fromLane="2" to="102486195" toLane="1" linkIndex="8"/>

    <!-- Changed Elements -->
    <tlLogic id="GS_30134985" programID="0" >
        <phase duration="33" maxDur="50" minDur="5" state="GGggGGgrrrrrrGGgGGggrrrrrrr"/>
        <phase duration="3" state="yyyyyygrrrrrryyyyyggrrrrrrr"/>
        <phase duration="6" maxDur="50" minDur="5" state="rrrrrrGrrrrrrrrrrrGGrrrrrrr"/>
        <phase duration="3" state="rrrrrryrrrrrrrrrrryyrrrrrrr"/>
        <phase duration="33" maxDur="50" minDur="5" state="rrrrrrrGGggggrrrrrrrGGGGGgg"/>
        <phase duration="3" state="rrrrrrryygyggrrrrrrryyyyygg"/>
        <phase duration="6" maxDur="50" minDur="5" state="rrrrrrrrrGrGGrrrrrrrrrrrrGG"/>
        <phase duration="3" state="rrrrrrrrryryyrrrrrrrrrrrryy"/>
    </tlLogic>
    <tlLogic id="GS_cluster_1203445765_29884997_29885002" programID="0" >
        <phase duration="33" maxDur="50" minDur="5" state="rrrrrrrGGgGGggrrrrrrrGGggGGgg"/>
        <phase duration="3" state="rrrrrrryyyyyggrrrrrrryyyyyygg"/>
        <phase duration="6" maxDur="50" minDur="5" state="rrrrrrrrrrrrGGrrrrrrrrrrrrrGG"/>
        <phase duration="3" state="rrrrrrrrrrrryyrrrrrrrrrrrrryy"/>
        <phase duration="33" maxDur="50" minDur="5" state="GgggGggrrrrrrrGGGGGggrrrrrrrr"/>
        <phase duration="3" state="yyyyyggrrrrrrryyyyyggrrrrrrrr"/>
        <phase duration="6" maxDur="50" minDur="5" state="rrrrrGGrrrrrrrrrrrrGGrrrrrrrr"/>
        <phase duration="3" state="rrrrryyrrrrrrrrrrrryyrrrrrrrr"/>
    </tlLogic>
    <tlLogic id="GS_cluster_26682569_26984400" programID="0" >
        <phase duration="24" maxDur="50" minDur="5" state="rrrrrGGgggrrrrGGGGg"/>
        <phase duration="3" state="rrrrryyyggrrrryyyyg"/>
        <phase duration="6" maxDur="50" minDur="5" state="rrrrrrrrGGrrrrrrrrG"/>
        <phase duration="3" state="rrrrrrrryyrrrrrrrry"/>
        <phase duration="24" maxDur="50" minDur="5" state="GGGGGGrgrrrrrrrrrrr"/>
        <phase duration="3" state="yyyyyyryrrrrrrrrrrr"/>
        <phase duration="24" maxDur="50" minDur="5" state="rrrrrrrrrrGGGGGrrrr"/>
        <phase duration="3" state="rrrrrrrrrryyyyyrrrr"/>
    </tlLogic>
    <tlLogic id="GS_cluster_52645620_73729228" programID="0" >
        <phase duration="33" maxDur="50" minDur="5" state="GGgGGggrrrrrrGGgGGgrrrrrr"/>
        <phase duration="3" state="yyyyyggrrrrrryyyyygrrrrrr"/>
        <phase duration="6" maxDur="50" minDur="5" state="rrrrrGGrrrrrrrrrrrGrrrrrr"/>
        <phase duration="3" state="rrrrryyrrrrrrrrrrryrrrrrr"/>
        <phase duration="33" maxDur="50" minDur="5" state="rrrrrrrGGGgggrrrrrrGGGggg"/>
        <phase duration="3" state="rrrrrrryyygggrrrrrryyyggg"/>
        <phase duration="6" maxDur="50" minDur="5" state="rrrrrrrrrrGGGrrrrrrrrrGGG"/>
        <phase duration="3" state="rrrrrrrrrryyyrrrrrrrrryyy"/>
    </tlLogic>
    <tlLogic id="cluster_27432330_27432331" programID="0" >
        <phase duration="42" maxDur="50" minDur="5" state="GGgGGgrrrrrGGgGGgrrrrrr"/>
        <phase duration="3" state="yyyyyyrrrrryyyyyyrrrrrr"/>
        <phase duration="42" maxDur="50" minDur="5" state="rrrrrrGGGggrrrrrrGGGggg"/>
        <phase duration="3" state="rrrrrryyyyyrrrrrryyyyyy"/>
    </tlLogic>
    <!-- Created Elements -->
    <connection from="-24916008" fromLane="1" to="4410310#0" toLane="2" linkIndex="16" tl="GS_cluster_26682569_26984400"/>
    <connection from="151465251#4" fromLane="1" to="31521841#0" toLane="2" linkIndex="11" tl="GS_cluster_52645620_73729228"/>
    <connection from="203910771#3" fromLane="1" to="4410310#0" toLane="2" linkIndex="3" tl="GS_cluster_26682569_26984400"/>
    <connection from="24160797#1" fromLane="1" to="-5364047#2" toLane="2" linkIndex="23" tl="GS_30134985"/>
    <connection from="27944009#7" fromLane="1" to="24540254#0" toLane="2" linkIndex="17" tl="GS_cluster_1203445765_29884997_29885002"/>
    <connection from="4616178#18" fromLane="1" to="148093695" toLane="2" linkIndex="21" tl="cluster_27432330_27432331"/>
    <!-- Changed Elements -->
    <connection from="-24916008" fromLane="1" to="28497108#0" toLane="1" linkIndex="14"/>
    <connection from="-24916008" fromLane="1" to="4410310#0" toLane="1" linkIndex="15"/>
    <connection from="-24916008" fromLane="1" to="4410310#0" toLane="3" linkIndex="17"/>
    <connection from="-24916008" fromLane="1" to="-203910771#8" toLane="1" linkIndex="18"/>
    <connection from="-28497108#2" fromLane="1" to="4410310#0" toLane="1" linkIndex="10"/>
    <connection from="-28497108#2" fromLane="1" to="4410310#0" toLane="2" linkIndex="11"/>
    <connection from="-28497108#2" fromLane="1" to="-203910771#8" toLane="1" linkIndex="12"/>
    <connection from="-28497108#2" fromLane="1" to="172536702#0" toLane="1" linkIndex="13"/>
    <connection from="151465251#4" fromLane="1" to="31521841#0" toLane="3" linkIndex="12"/>
    <connection from="193064444#0" fromLane="1" to="-27944009#10" toLane="1" linkIndex="21"/>
    <connection from="193064444#0" fromLane="1" to="684872877#0" toLane="1" linkIndex="22"/>
    <connection from="193064444#0" fromLane="1" to="24540254#0" toLane="1" linkIndex="23"/>
    <connection from="193064444#0" fromLane="2" to="-27944009#10" toLane="1" linkIndex="24"/>
    <connection from="193064444#0" fromLane="2" to="684872877#0" toLane="2" linkIndex="25"/>
    <connection from="193064444#0" fromLane="3" to="684872877#0" toLane="3" linkIndex="26"/>
    <connection from="193064444#0" fromLane="4" to="24540254#0" toLane="3" linkIndex="27"/>
    <connection from="193064444#0" fromLane="4" to="165438137#0" toLane="3" linkIndex="28"/>
    <connection from="203910771#3" fromLane="1" to="4410310#0" toLane="3" linkIndex="4"/>
    <connection from="24159348#0" fromLane="1" to="31521841#0" toLane="1" linkIndex="19"/>
    <connection from="24159348#0" fromLane="1" to="31521841#0" toLane="2" linkIndex="20"/>
    <connection from="24159348#0" fromLane="1" to="-241271972#7" toLane="1" linkIndex="21"/>
    <connection from="24159348#0" fromLane="1" to="151465252#0" toLane="1" linkIndex="22"/>
    <connection from="24159348#0" fromLane="2" to="151465252#0" toLane="3" linkIndex="23"/>
    <connection from="24159348#0" fromLane="2" to="-24159348#2" toLane="1" linkIndex="24"/>
    <connection from="24160797#1" fromLane="1" to="-5364047#2" toLane="3" linkIndex="24"/>
    <connection from="24160797#1" fromLane="1" to="-313917247#2" toLane="1" linkIndex="25"/>
    <connection from="24160797#1" fromLane="1" to="-313917247#2" toLane="3" linkIndex="26"/>
    <connection from="27944009#7" fromLane="1" to="24540254#0" toLane="3" linkIndex="18"/>
    <connection from="27944009#7" fromLane="1" to="165438137#0" toLane="1" linkIndex="19"/>
    <connection from="27944009#7" fromLane="1" to="165438137#0" toLane="3" linkIndex="20"/>
    <connection from="4616178#18" fromLane="1" to="148093695" toLane="3" linkIndex="22"/>
    <connection from="478274643#1" fromLane="1" to="-241271972#7" toLane="1" linkIndex="13"/>
    <connection from="478274643#1" fromLane="1" to="151465252#0" toLane="1" linkIndex="14"/>
    <connection from="478274643#1" fromLane="2" to="-241271972#7" toLane="1" linkIndex="15"/>
    <connection from="478274643#1" fromLane="2" to="151465252#0" toLane="2" linkIndex="16"/>
    <connection from="478274643#1" fromLane="3" to="151465252#0" toLane="3" linkIndex="17"/>
    <connection from="478274643#1" fromLane="3" to="-24159348#2" toLane="1" linkIndex="18"/>
    <connection from="692480567#0" fromLane="1" to="-203910771#8" toLane="1" linkIndex="5"/>
    <connection from="692480567#0" fromLane="1" to="172536702#0" toLane="1" linkIndex="6"/>
    <connection from="692480567#0" fromLane="2" to="-203910771#8" toLane="1" linkIndex="7"/>
    <connection from="692480567#0" fromLane="4" to="28497108#0" toLane="1" linkIndex="8"/>
    <connection from="692480567#0" fromLane="4" to="4410310#0" toLane="3" linkIndex="9"/>

    <!-- Deleted Elements -->
    <delete from="144960908#0" fromLane="2" to="123955029#0" toLane="2" linkIndex="3" tl="GS_cluster_29421417_7125218596_7125218597_822502381"/>
    <delete from="4631949" fromLane="2" to="-144960908#3" toLane="2" linkIndex="12" tl="GS_cluster_29421417_7125218596_7125218597_822502381"/>
    <delete from="68314925#8" fromLane="2" to="68314926" toLane="2" linkIndex="7" tl="GS_cluster_29421417_7125218596_7125218597_822502381"/>
    <!-- Changed Elements -->
    <tlLogic id="GS_cluster_29421417_7125218596_7125218597_822502381" programID="0" >
        <phase duration="24" maxDur="50" minDur="5" state="GrGrrGrGrrGrrrrGG"/>
        <phase duration="3" state="yryrryryrryrrrryy"/>
        <phase duration="24" maxDur="50" minDur="5" state="rrrrrGGgGGrGgGgrr"/>
        <phase duration="3" state="rrrrryyyyyryyygrr"/>
        <phase duration="6" maxDur="50" minDur="5" state="rrrrrrrrrrrGgGGrr"/>
        <phase duration="3" state="rrrrrrrrrrryyyyrr"/>
        <phase duration="24" maxDur="50" minDur="5" state="GGggGGrGrrrrrrrrr"/>
        <phase duration="3" state="yyyyyyryrrrrrrrrr"/>
    </tlLogic>
    <!-- Created Elements -->
    <connection from="144960908#0" fromLane="2" to="156239889#8" toLane="0" linkIndex="3" tl="GS_cluster_29421417_7125218596_7125218597_822502381"/>
    <connection from="144960908#0" fromLane="3" to="123955029#0" toLane="2" linkIndex="4" tl="GS_cluster_29421417_7125218596_7125218597_822502381"/>
    <connection from="156239891#1" fromLane="0" to="123955029#0" toLane="2" linkIndex="15" tl="GS_cluster_29421417_7125218596_7125218597_822502381"/>
    <connection from="4631949" fromLane="3" to="-144960908#3" toLane="2" linkIndex="14" tl="GS_cluster_29421417_7125218596_7125218597_822502381"/>
    <connection from="68314925#8" fromLane="2" to="68314926" toLane="3" linkIndex="8" tl="GS_cluster_29421417_7125218596_7125218597_822502381"/>
    <connection from="68314925#8" fromLane="2" to="156239889#8" toLane="0" linkIndex="9" tl="GS_cluster_29421417_7125218596_7125218597_822502381"/>
    <!-- Changed Elements -->
    <connection from="156239891#1" fromLane="0" to="156239885#7" toLane="0" linkIndex="16"/>
    <connection from="4631949" fromLane="1" to="123955029#0" toLane="1" linkIndex="11"/>
    <connection from="4631949" fromLane="1" to="-144960908#3" toLane="1" linkIndex="12"/>
    <connection from="4631949" fromLane="2" to="123955029#0" toLane="2" linkIndex="13"/>
    <connection from="68314925#8" fromLane="1" to="-144960908#3" toLane="1" linkIndex="5"/>
    <connection from="68314925#8" fromLane="1" to="68314926" toLane="1" linkIndex="6"/>
    <connection from="68314925#8" fromLane="2" to="-144960908#3" toLane="2" linkIndex="7"/>
    <connection from="86403427#2" fromLane="0" to="156239889#8" toLane="0" linkIndex="10"/>

<!-- manual modifications for Spandau by Stefanie Schoene 2021-05-19 --> 
    <!-- implicit via changed node type: <delete id="GS_262091049" programID="0"/> -->
    <delete from="-4804146#2" fromLane="1" to="33066934#0" toLane="1" linkIndex="19" tl="GS_cluster_26759713_26759714"/>
    <delete from="25394871" fromLane="2" to="57387202" toLane="3" linkIndex="2" tl="GS_26759668"/>
    <delete from="310096987#1" fromLane="2" to="33066934#0" toLane="1" linkIndex="13" tl="GS_cluster_26759713_26759714"/>
    <delete from="310096987#1" fromLane="3" to="4804146#0" toLane="1" linkIndex="14" tl="GS_cluster_26759713_26759714"/>
    <delete from="332573584#0" fromLane="1" to="57387247" toLane="1" linkIndex="5" tl="GS_26759664"/>
    <delete from="37535101#0" fromLane="3" to="4797965#0" toLane="4" linkIndex="10" tl="joinedS_50"/>
    <delete from="4453033#0" fromLane="1" to="31697122#0" toLane="1" linkIndex="3" tl="GS_262091049"/>
    <delete from="4453033#0" fromLane="2" to="31697122#0" toLane="2" linkIndex="4" tl="GS_262091049"/>
    <delete from="4453033#0" fromLane="3" to="31697122#0" toLane="3" linkIndex="5" tl="GS_262091049"/>
    <delete from="4453033#0" fromLane="4" to="31697122#0" toLane="4" linkIndex="6" tl="GS_262091049"/>
    <delete from="4453033#0" fromLane="5" to="31697122#0" toLane="5" linkIndex="7" tl="GS_262091049"/>
    <delete from="4453034#0" fromLane="1" to="4804146#0" toLane="1" linkIndex="0" tl="GS_cluster_26759713_26759714"/>
    <delete from="4453034#0" fromLane="5" to="33066934#0" toLane="1" linkIndex="7" tl="GS_cluster_26759713_26759714"/>
    <delete from="4804138#0" fromLane="0" to="31697122#0" toLane="1" linkIndex="0" tl="GS_262091049"/>
    <delete from="4804138#0" fromLane="1" to="31697122#0" toLane="2" linkIndex="1" tl="GS_262091049"/>
    <delete from="4804138#0" fromLane="1" to="31697122#0" toLane="3" linkIndex="2" tl="GS_262091049"/>
    <delete from="57387200#0" fromLane="2" to="57387247" toLane="3" linkIndex="2" tl="GS_26759664"/>
    <delete from="57387200#0" fromLane="3" to="57387247" toLane="4" linkIndex="3" tl="GS_26759664"/>
    <delete from="57387200#0" fromLane="4" to="57387247" toLane="5" linkIndex="4" tl="GS_26759664"/>
    <!-- Created Elements -->
    <tlLogic id="26662466" programID="0" offset="10" type="static">
        <phase duration="25" state="GGGrrrr"/>
        <phase duration="3" state="yyyrrrr"/>
        <phase duration="59" state="rrrGGGG"/>
        <phase duration="3" state="rrryyyr"/>
    </tlLogic>
    <tlLogic id="26785751" programID="0" offset="39" type="static">
        <phase duration="25" state="GGGGrrrr"/>
        <phase duration="5" state="yyyyrrrr"/>
        <phase duration="5" state="rrrrGGGG"/>
        <phase duration="52" state="GrrrGGGr"/>
        <phase duration="3" state="rrrryyyr"/>
    </tlLogic>
    <tlLogic id="cluster_26759725_3051210670_34780709" programID="0" offset="0" type="static">
        <phase duration="16" state="gGgGGGGggrrrrrrrrrrrgGGgGGGgggrrrrrrrrrrGGrrG"/>
        <phase duration="5" state="gGgGGGGggrrrrrrrrrrrgGGgGGGgggrrrrrrrrrrrrrrr"/>
        <phase duration="3" state="yyyyyyyggrrrrrrrrrrryyyyyyygggrrrrrrrrrrrrrrr"/>
        <phase duration="6" state="rrrrrrrGGrrrrrrrrrrrrrrrrrrGGGrrrrrrrrrrrrrrr"/>
        <phase duration="3" state="rrrrrrryyrrrrrrrrrrrrrrrrrryyyrrrrrrrrrrrrrrr"/>
        <phase duration="16" state="rrrrrrrrrggGGgGgrrrrrrrrrrrrrrgGgggGggGGrGGGr"/>
        <phase duration="5" state="rrrrrrrrrggGGgGgrrrrrrrrrrrrrrgGgggGggrrrrrrr"/>
        <phase duration="3" state="rrrrrrrrryyyyyygrrrrrrrrrrrrrryyyyyyggrrrrrrr"/>
        <phase duration="6" state="rrrrrrrrrrrrrrrGrrrrrrrrrrrrrrrrrrrrGGrrrrrrr"/>
        <phase duration="3" state="rrrrrrrrrrrrrrryrrrrrrrrrrrrrrrrrrrryyrrrrrrr"/>
        <phase duration="16" state="rrrrrrrrrrrrrrrrggGgrrrrrrrrrrrrrrrrrrGGGrGGr"/>
        <phase duration="5" state="rrrrrrrrrrrrrrrrggGgrrrrrrrrrrrrrrrrrrrrrrrrr"/>
        <phase duration="3" state="rrrrrrrrrrrrrrrryyyyrrrrrrrrrrrrrrrrrrrrrrrrr"/>
    </tlLogic>
    <tlLogic id="cluster_26759727_26759728_26759729_26759730_6603475852_6603475853" programID="0" offset="0" type="static">
        <phase duration="12" state="gGgggGGGggrrrrrrrgGGggGGGGgrrrrrrrrrrrrrrrrGrGrrGGG"/>
        <phase duration="5" state="gGgggGGGggrrrrrrrgGGggGGGGgrrrrrrrrrrrrrrrrrrrrrrrr"/>
        <phase duration="3" state="yyyyyyyyggrrrrrrryyyyyyyyygrrrrrrrrrrrrrrrrrrrrrrrr"/>
        <phase duration="6" state="rrrrrrrrGGrrrrrrrrrrrrrrrrGrrrrrrrrrrrrrrrrrrrrrrrr"/>
        <phase duration="3" state="rrrrrrrryyrrrrrrrrrrrrrrrryrrrrrrrrrrrrrrrrrrrrrrrr"/>
        <phase duration="13" state="rrrrrrrrrrGggGGggrrrrrrrrrrrrrrggGggGGgggGrrrrGGGrr"/>
        <phase duration="5" state="rrrrrrrrrrGggGGggrrrrrrrrrrrrrrggGggGGgggrrrrrrrrrr"/>
        <phase duration="3" state="rrrrrrrrrryygyyggrrrrrrrrrrrrrryyyygyygggrrrrrrrrrr"/>
        <phase duration="6" state="rrrrrrrrrrrrGrrGGrrrrrrrrrrrrrrrrrrGrrGGGrrrrrrrrrr"/>
        <phase duration="3" state="rrrrrrrrrrrryrryyrrrrrrrrrrrrrrrrrryrryyyrrrrrrrrrr"/>
        <phase duration="13" state="rrrrrrrrrrrrrrrrrrrrrrrrrrrgGGgrrrrrrrrrrGGGrrGGrGG"/>
        <phase duration="5" state="rrrrrrrrrrrrrrrrrrrrrrrrrrrgGGgrrrrrrrrrrrrrrrrrrrr"/>
        <phase duration="3" state="rrrrrrrrrrrrrrrrrrrrrrrrrrryyyyrrrrrrrrrrrrrrrrrrrr"/>
        <phase duration="5" state="rrrrrrrrrrrrrrrrrrrrrrrrrrrrrrrrrrrrrrrrrGGGGGGGGGG"/>
        <phase duration="5" state="rrrrrrrrrrrrrrrrrrrrrrrrrrrrrrrrrrrrrrrrrrrrrrrrrrr"/>
    </tlLogic>
    <tlLogic id="cluster_4403887066_4403887080_4403887081" programID="0" offset="0" type="static">
        <phase duration="1" state="rrrrrrrrrrrrGG"/>
        <phase duration="33" state="rrrrrrrGGGrrrr"/>
        <phase duration="3" state="rrrrrrryyyrrrr"/>
        <phase duration="1" state="rrrggggrrrgGrr"/>
        <phase duration="1" state="rrryyyyrrryyrr"/>
        <phase duration="25" state="rrrrrrrGGGrrrr"/>
        <phase duration="3" state="rrrrrrrGGyrrrr"/>
        <phase duration="20" state="GGGrrrrGGrrrrr"/>
        <phase duration="3" state="yyyrrrryyrrrrr"/>
    </tlLogic>
    <!-- Changed Elements -->
    <tlLogic id="GS_26759664" programID="0" >
        <phase duration="47" maxDur="50" minDur="5" state="GGGGGGrrrrrG"/>
        <phase duration="3" state="yyyyyyrrrrrr"/>
        <phase duration="37" maxDur="50" minDur="5" state="rrrrrrGGGGGr"/>
        <phase duration="3" state="rrrrrryyyyyr"/>
    </tlLogic>
    <tlLogic id="GS_26759668" programID="0" >
        <phase duration="42" maxDur="50" minDur="5" state="GGGGGrrrrrrrr"/>
        <phase duration="3" state="yyyyyrrrrrrrr"/>
        <phase duration="37" maxDur="50" minDur="5" state="rrrrrGGGGGGGG"/>
        <phase duration="5" state="rrrrrGGGGGGGr"/>
        <phase duration="3" state="rrrrryyyyyyyr"/>
    </tlLogic>
    <tlLogic id="GS_cluster_26750460_26750515" programID="0" >
        <phase duration="46" maxDur="50" minDur="5" state="GGGGrrrrGGGGrrGrr"/>
        <phase duration="5" state="GGGGrrrrGGGGrrrrr"/>
        <phase duration="4" state="yyyyrrrryyyyrrrrr"/>
        <phase duration="26" maxDur="50" minDur="7" state="rrrrggggrrrrGGrGG"/>
        <phase duration="5" state="rrrrggggrrrrrrrrr"/>
        <phase duration="4" state="rrrryyyyrrrrrrrrr"/>
    </tlLogic>
    <tlLogic id="GS_cluster_26750531_26750541" programID="0" >
        <phase duration="30" maxDur="50" minDur="10" state="rrrgGGrGGggGrrrr"/>
        <phase duration="5" state="rrrgGGrGGggrrrrr"/>
        <phase duration="5" state="rrryyyryyggrrrrr"/>
        <phase duration="5" state="rrrrrrGrrGGrrrrr"/>
        <phase duration="5" state="rrrrrryrryyrrrrr"/>
        <phase duration="10" state="gggGrrrrrrrrrGGG"/>
        <phase duration="5" state="gggGrrrrrrrrrrrr"/>
        <phase duration="5" state="yyyyrrrrrrrrrrrr"/>
        <phase duration="5" state="rrrrrrrrrrrGGGGG"/>
        <phase duration="5" state="rrrrrrrrrrrrrrrr"/>
    </tlLogic>
    <tlLogic id="GS_cluster_26759655_26759676" programID="0" >
        <phase duration="57" maxDur="50" minDur="5" state="rrrrrrgGgGGGGGGGGgGrrrr"/>
        <phase duration="5" state="rrrrrrgGgGGGGGGGGgrrrrr"/>
        <phase duration="3" state="rrrrrryyyyyyyyyyyyrrrrr"/>
        <phase duration="7" maxDur="50" minDur="5" state="ggggggGrgrrrrrrrrrrrGGG"/>
        <phase duration="5" state="ggggggGrgrrrrrrrrrrrrrr"/>
        <phase duration="3" state="yyyyyyyryrrrrrrrrrrrrrr"/>
        <phase duration="5" state="rrrrrrrrrrrrrrrrrrGGGGG"/>
        <phase duration="5" state="rrrrrrrrrrrrrrrrrrrrrrr"/>
    </tlLogic>
    <tlLogic id="GS_cluster_26759713_26759714" programID="0" >
        <phase duration="19" maxDur="50" minDur="5" state="GgGGGggrrrrrgGGGGggrrrrGrG"/>
        <phase duration="5" state="GgGGGggrrrrrgGGGGggrrrrrrr"/>
        <phase duration="3" state="yyyyyggrrrrryyyyyggrrrrrrr"/>
        <phase duration="6" maxDur="50" minDur="5" state="rrrrrGGrrrrrrrrrrGGrrrrrrr"/>
        <phase duration="3" state="rrrrryyrrrrrrrrrryyrrrrrrr"/>
        <phase duration="19" maxDur="50" minDur="5" state="rrrrrrrrrrrrrrrrrrrggGGrGr"/>
        <phase duration="5" state="rrrrrrrrrrrrrrrrrrrggGGrrr"/>
        <phase duration="3" state="rrrrrrrrrrrrrrrrrrryyyyrrr"/>
        <phase duration="19" maxDur="50" minDur="5" state="rrrrrrrGGgggrrrrrrrrrrrrGr"/>
        <phase duration="5" state="rrrrrrrGGgggrrrrrrrrrrrrrr"/>
        <phase duration="3" state="rrrrrrryyyyyrrrrrrrrrrrrrr"/>
    </tlLogic>
    <tlLogic id="joinedS_3" programID="0" >
        <phase duration="1" state="rrrrrrrrrrrrrrrrrrrrrrrrrrrrrrrrrrrrrrrGGGGGGG"/>
        <phase duration="10" state="rrrGGGrrrrrrrGGGrrGrGGrrrGGGrGGrrrrrrrrrrrrrrr"/>
        <phase duration="3" state="rrrGGGrrrrrrryyyrrGrGGGGrGGGrGGrrrrrrrrrrrrrrr"/>
        <phase duration="20" state="rrrGGGrGGGrrrrrrrrGrGGGGrGGGrGGrrrrGgrrrrrrrrr"/>
        <phase duration="3" state="rrryyyryyyryrrrrrryryyyyryyyryyrrrrrrrrrrrrrrr"/>
        <phase duration="1" state="GGrrrrrrrrGrGrrrggrrrrrgrrryGrrgggrrrrrrrrrrrr"/>
        <phase duration="1" state="yyrrrrrrrryryrrryyrrrrryrrrryrryyyrrrrrrrrrrrr"/>
        <phase duration="25" state="rrrGGGrrrrrrrrrrrrGrGGGGrGGGrrrrrrgGGGGrrrrrrr"/>
        <phase duration="3" state="rrrGGGrrrrrrrrrrrrGrGGGGrGGGrrrrrryyyyyrrrrrrr"/>
        <phase duration="20" state="rrrGGGrrrrrrrrrrrrGrGGGGrGGGrGGrrrrGgrrrrrrrrr"/>
        <phase duration="3" state="rrryyyrrrrrrrrrrrryryyyyryyyryyrrrrrrrrrrrrrrr"/>
    </tlLogic>
    <tlLogic id="joinedS_50" programID="0" offset="25">
        <phase duration="22" maxDur="50" minDur="5" state="GGgggGGGGrrrrrrrrrrrrrrGGGGGrrG"/>
        <phase duration="3" state="yyyyyyyyyrrrrrrrrrrrrrryyyyyrrr"/>
        <phase duration="22" maxDur="50" minDur="5" state="rrGgggrrrrrGGGGGGrrrrrrGGGGGrrG"/>
        <phase duration="3" state="rryyyyrrrrryyyyyyrrrrrryyyyyrrr"/>
        <phase duration="32" maxDur="50" minDur="5" state="rrrrrrrrrGGGrrrrrGGGGGGrrrrrrGr"/>
        <phase duration="5" state="rrrrrrrrrrrrrrrrrGGGGGGrrrrrrrr"/>
        <phase duration="3" state="rrrrrrrrrrrrrrrrryyyyyyrrrrrrrr"/>
    </tlLogic>
    <!-- Created Elements -->
    <connection from="-23153824#0" fromLane="1" to="100100954#0" toLane="3" linkIndex="10" tl="GS_cluster_26759713_26759714"/>
    <connection from="-462582767" fromLane="1" to="28502754#0" toLane="1" linkIndex="30" tl="cluster_26759725_3051210670_34780709"/>
    <connection from="-462582767" fromLane="1" to="5076409#0" toLane="1" linkIndex="31" tl="cluster_26759725_3051210670_34780709"/>
    <connection from="-462582767" fromLane="1" to="30818832#1" toLane="1" linkIndex="32" tl="cluster_26759725_3051210670_34780709"/>
    <connection from="-462582767" fromLane="2" to="28502754#0" toLane="2" linkIndex="33" tl="cluster_26759725_3051210670_34780709"/>
    <connection from="-462582767" fromLane="3" to="28502754#0" toLane="3" linkIndex="34" tl="cluster_26759725_3051210670_34780709"/>
    <connection from="-462582767" fromLane="3" to="5076409#0" toLane="1" linkIndex="35" tl="cluster_26759725_3051210670_34780709"/>
    <connection from="-462582767" fromLane="4" to="30818832#1" toLane="5" linkIndex="36" tl="cluster_26759725_3051210670_34780709"/>
    <connection from="-462582767" fromLane="4" to="30718931#0" toLane="3" linkIndex="37" tl="cluster_26759725_3051210670_34780709"/>
    <connection from="-4804146#2" fromLane="1" to="33066934#0" toLane="4" linkIndex="22" tl="GS_cluster_26759713_26759714"/>
    <connection from="-5076409#3" fromLane="1" to="30818832#1" toLane="1" linkIndex="9" tl="cluster_26759725_3051210670_34780709"/>
    <connection from="-5076409#3" fromLane="1" to="30818832#1" toLane="2" linkIndex="10" tl="cluster_26759725_3051210670_34780709"/>
    <connection from="-5076409#3" fromLane="1" to="30718931#0" toLane="1" linkIndex="11" tl="cluster_26759725_3051210670_34780709"/>
    <connection from="-5076409#3" fromLane="1" to="30718931#0" toLane="2" linkIndex="12" tl="cluster_26759725_3051210670_34780709"/>
    <connection from="-5076409#3" fromLane="1" to="28502754#0" toLane="1" linkIndex="13" tl="cluster_26759725_3051210670_34780709"/>
    <connection from="-5076409#3" fromLane="2" to="30718931#0" toLane="3" linkIndex="14" tl="cluster_26759725_3051210670_34780709"/>
    <connection from="-5076409#3" fromLane="2" to="28502754#0" toLane="4" linkIndex="15" tl="cluster_26759725_3051210670_34780709"/>
    <connection from="241770480#0" fromLane="1" to="241770479" toLane="2" linkIndex="4" tl="26785751"/>
    <connection from="241770480#0" fromLane="2" to="241770479" toLane="3" linkIndex="5" tl="26785751"/>
    <connection from="241770480#0" fromLane="3" to="241770479" toLane="4" linkIndex="6" tl="26785751"/>
    <connection from="25394871" fromLane="3" to="57387202" toLane="3" linkIndex="2" tl="GS_26759668"/>
    <connection from="25394871" fromLane="4" to="57387202" toLane="4" linkIndex="3" tl="GS_26759668"/>
    <connection from="25394871" fromLane="5" to="57387202" toLane="5" linkIndex="4" tl="GS_26759668"/>
    <connection from="310096987#1" fromLane="1" to="33066934#0" toLane="1" linkIndex="13" tl="GS_cluster_26759713_26759714"/>
    <connection from="310096987#1" fromLane="2" to="33066934#0" toLane="2" linkIndex="14" tl="GS_cluster_26759713_26759714"/>
    <connection from="310096987#1" fromLane="3" to="33066934#0" toLane="3" linkIndex="15" tl="GS_cluster_26759713_26759714"/>
    <connection from="310096987#1" fromLane="4" to="33066934#0" toLane="4" linkIndex="16" tl="GS_cluster_26759713_26759714"/>
    <connection from="310096987#1" fromLane="5" to="4804146#0" toLane="1" linkIndex="17" tl="GS_cluster_26759713_26759714"/>
    <connection from="31697057#0" fromLane="1" to="4804140#0" toLane="1" linkIndex="10" tl="cluster_26759727_26759728_26759729_26759730_6603475852_6603475853"/>
    <connection from="31697057#0" fromLane="1" to="5095112#0" toLane="1" linkIndex="11" tl="cluster_26759727_26759728_26759729_26759730_6603475852_6603475853"/>
    <connection from="31697057#0" fromLane="1" to="4553974#0" toLane="1" linkIndex="12" tl="cluster_26759727_26759728_26759729_26759730_6603475852_6603475853"/>
    <connection from="31697057#0" fromLane="2" to="4804140#0" toLane="2" linkIndex="13" tl="cluster_26759727_26759728_26759729_26759730_6603475852_6603475853"/>
    <connection from="31697057#0" fromLane="3" to="4804140#0" toLane="3" linkIndex="14" tl="cluster_26759727_26759728_26759729_26759730_6603475852_6603475853"/>
    <connection from="31697057#0" fromLane="3" to="5095112#0" toLane="4" linkIndex="15" tl="cluster_26759727_26759728_26759729_26759730_6603475852_6603475853"/>
    <connection from="31697057#0" fromLane="4" to="4553974#0" toLane="2" linkIndex="16" tl="cluster_26759727_26759728_26759729_26759730_6603475852_6603475853"/>
    <connection from="31697122#0" fromLane="1" to="5076409#0" toLane="1" linkIndex="20" tl="cluster_26759725_3051210670_34780709"/>
    <connection from="31697122#0" fromLane="1" to="30818832#1" toLane="1" linkIndex="21" tl="cluster_26759725_3051210670_34780709"/>
    <connection from="31697122#0" fromLane="1" to="30818832#1" toLane="2" linkIndex="22" tl="cluster_26759725_3051210670_34780709"/>
    <connection from="31697122#0" fromLane="1" to="30718931#0" toLane="1" linkIndex="23" tl="cluster_26759725_3051210670_34780709"/>
    <connection from="31697122#0" fromLane="2" to="30818832#1" toLane="3" linkIndex="24" tl="cluster_26759725_3051210670_34780709"/>
    <connection from="31697122#0" fromLane="3" to="30818832#1" toLane="4" linkIndex="25" tl="cluster_26759725_3051210670_34780709"/>
    <connection from="31697122#0" fromLane="4" to="30818832#1" toLane="5" linkIndex="26" tl="cluster_26759725_3051210670_34780709"/>
    <connection from="31697122#0" fromLane="4" to="30718931#0" toLane="2" linkIndex="27" tl="cluster_26759725_3051210670_34780709"/>
    <connection from="31697122#0" fromLane="5" to="30718931#0" toLane="3" linkIndex="28" tl="cluster_26759725_3051210670_34780709"/>
    <connection from="31697122#0" fromLane="5" to="28502754#0" toLane="5" linkIndex="29" tl="cluster_26759725_3051210670_34780709"/>
    <connection from="31783590#0" fromLane="1" to="31783590#3" toLane="1" linkIndex="0" tl="cluster_4403887066_4403887080_4403887081"/>