<edges>
    <!-- Rosenthaler Platz -->
    <edge id="-312645512#1" numLanes="4"/>
    <edge id="-312645512#2" numLanes="4"/>
    <edge id="312645512#0" numLanes="3"/>
    <edge id="312645512#1" numLanes="3"/>
    <edge id="312645512#2" numLanes="3"/>
    
    
    <edge id="4610364#0">
        <lane index="1" disallow="pedestrian bicycle tram rail_urban rail rail_electric rail_fast ship"/>
    </edge>
    
    <!-- Kopernikusstr Bus lane -->
    <edge id="4790839#0">
        <lane index="1" allow="emergency authority army vip taxi bus bicycle"/>
    </edge>
    <edge id="295042254">
        <lane index="1" allow="emergency authority army vip taxi bus bicycle"/>
    </edge>
    <edge id="311357732#0">
        <lane index="1" allow="emergency authority army vip taxi bus bicycle"/>
    </edge>
    <edge id="311357732#1">
        <lane index="1" allow="emergency authority army vip taxi bus bicycle"/>
    </edge>
    <edge id="4790838#0">
        <lane index="1" allow="emergency authority army vip taxi bus bicycle"/>
    </edge>
    <edge id="187091991">
        <lane index="1" allow="emergency authority army vip taxi bus bicycle"/>
    </edge>
    <edge id="4613112#0">
        <lane index="1" allow="emergency authority army vip taxi bus bicycle"/>
    </edge>
    <edge id="232070355#0">
        <lane index="1" allow="emergency authority army vip taxi bus bicycle"/>
    </edge>
    
</edges>
